# CMAKE generated file: DO NOT EDIT!
# Generated by "Unix Makefiles" Generator, CMake Version 3.15

# Delete rule output on recipe failure.
.DELETE_ON_ERROR:


#=============================================================================
# Special targets provided by cmake.

# Disable implicit rules so canonical targets will work.
.SUFFIXES:


# Remove some rules from gmake that .SUFFIXES does not remove.
SUFFIXES =

.SUFFIXES: .hpux_make_needs_suffix_list


# Suppress display of executed commands.
$(VERBOSE).SILENT:


# A target that is always out of date.
cmake_force:

.PHONY : cmake_force

#=============================================================================
# Set environment variables for the build.

# The shell in which to execute make rules.
SHELL = /bin/sh

# The CMake executable.
CMAKE_COMMAND = /home/natalia/.local/share/JetBrains/Toolbox/apps/CLion/ch-0/193.6911.21/bin/cmake/linux/bin/cmake

# The command to remove a file.
RM = /home/natalia/.local/share/JetBrains/Toolbox/apps/CLion/ch-0/193.6911.21/bin/cmake/linux/bin/cmake -E remove -f

# Escaping for special characters.
EQUALS = =

# The top-level source directory on which CMake was run.
CMAKE_SOURCE_DIR = /data1/bladics/externals/bladics--externals--openfast-dice_v3.2.0

# The top-level build directory on which CMake was run.
CMAKE_BINARY_DIR = /data1/bladics/externals/bladics--externals--openfast-dice_v3.2.0/cmake-build-debug

# Include any dependencies generated for this target.
include modules/aerodyn14/CMakeFiles/aerodyn14lib.dir/depend.make

# Include the progress variables for this target.
include modules/aerodyn14/CMakeFiles/aerodyn14lib.dir/progress.make

# Include the compile flags for this target's objects.
include modules/aerodyn14/CMakeFiles/aerodyn14lib.dir/flags.make

modules/aerodyn14/CMakeFiles/aerodyn14lib.dir/src/AeroDyn14.f90.o: modules/aerodyn14/CMakeFiles/aerodyn14lib.dir/flags.make
modules/aerodyn14/CMakeFiles/aerodyn14lib.dir/src/AeroDyn14.f90.o: ../modules/aerodyn14/src/AeroDyn14.f90
	@$(CMAKE_COMMAND) -E cmake_echo_color --switch=$(COLOR) --green --progress-dir=/data1/bladics/externals/bladics--externals--openfast-dice_v3.2.0/cmake-build-debug/CMakeFiles --progress-num=$(CMAKE_PROGRESS_1) "Building Fortran object modules/aerodyn14/CMakeFiles/aerodyn14lib.dir/src/AeroDyn14.f90.o"
	cd /data1/bladics/externals/bladics--externals--openfast-dice_v3.2.0/cmake-build-debug/modules/aerodyn14 && /home/natalia/anaconda3/bin/x86_64-conda-linux-gnu-gfortran $(Fortran_DEFINES) $(Fortran_INCLUDES) $(Fortran_FLAGS) -c /data1/bladics/externals/bladics--externals--openfast-dice_v3.2.0/modules/aerodyn14/src/AeroDyn14.f90 -o CMakeFiles/aerodyn14lib.dir/src/AeroDyn14.f90.o

modules/aerodyn14/CMakeFiles/aerodyn14lib.dir/src/AeroDyn14.f90.i: cmake_force
	@$(CMAKE_COMMAND) -E cmake_echo_color --switch=$(COLOR) --green "Preprocessing Fortran source to CMakeFiles/aerodyn14lib.dir/src/AeroDyn14.f90.i"
	cd /data1/bladics/externals/bladics--externals--openfast-dice_v3.2.0/cmake-build-debug/modules/aerodyn14 && /home/natalia/anaconda3/bin/x86_64-conda-linux-gnu-gfortran $(Fortran_DEFINES) $(Fortran_INCLUDES) $(Fortran_FLAGS) -E /data1/bladics/externals/bladics--externals--openfast-dice_v3.2.0/modules/aerodyn14/src/AeroDyn14.f90 > CMakeFiles/aerodyn14lib.dir/src/AeroDyn14.f90.i

modules/aerodyn14/CMakeFiles/aerodyn14lib.dir/src/AeroDyn14.f90.s: cmake_force
	@$(CMAKE_COMMAND) -E cmake_echo_color --switch=$(COLOR) --green "Compiling Fortran source to assembly CMakeFiles/aerodyn14lib.dir/src/AeroDyn14.f90.s"
	cd /data1/bladics/externals/bladics--externals--openfast-dice_v3.2.0/cmake-build-debug/modules/aerodyn14 && /home/natalia/anaconda3/bin/x86_64-conda-linux-gnu-gfortran $(Fortran_DEFINES) $(Fortran_INCLUDES) $(Fortran_FLAGS) -S /data1/bladics/externals/bladics--externals--openfast-dice_v3.2.0/modules/aerodyn14/src/AeroDyn14.f90 -o CMakeFiles/aerodyn14lib.dir/src/AeroDyn14.f90.s

modules/aerodyn14/CMakeFiles/aerodyn14lib.dir/src/AeroSubs.f90.o: modules/aerodyn14/CMakeFiles/aerodyn14lib.dir/flags.make
modules/aerodyn14/CMakeFiles/aerodyn14lib.dir/src/AeroSubs.f90.o: ../modules/aerodyn14/src/AeroSubs.f90
	@$(CMAKE_COMMAND) -E cmake_echo_color --switch=$(COLOR) --green --progress-dir=/data1/bladics/externals/bladics--externals--openfast-dice_v3.2.0/cmake-build-debug/CMakeFiles --progress-num=$(CMAKE_PROGRESS_2) "Building Fortran object modules/aerodyn14/CMakeFiles/aerodyn14lib.dir/src/AeroSubs.f90.o"
	cd /data1/bladics/externals/bladics--externals--openfast-dice_v3.2.0/cmake-build-debug/modules/aerodyn14 && /home/natalia/anaconda3/bin/x86_64-conda-linux-gnu-gfortran $(Fortran_DEFINES) $(Fortran_INCLUDES) $(Fortran_FLAGS) -c /data1/bladics/externals/bladics--externals--openfast-dice_v3.2.0/modules/aerodyn14/src/AeroSubs.f90 -o CMakeFiles/aerodyn14lib.dir/src/AeroSubs.f90.o

modules/aerodyn14/CMakeFiles/aerodyn14lib.dir/src/AeroSubs.f90.i: cmake_force
	@$(CMAKE_COMMAND) -E cmake_echo_color --switch=$(COLOR) --green "Preprocessing Fortran source to CMakeFiles/aerodyn14lib.dir/src/AeroSubs.f90.i"
	cd /data1/bladics/externals/bladics--externals--openfast-dice_v3.2.0/cmake-build-debug/modules/aerodyn14 && /home/natalia/anaconda3/bin/x86_64-conda-linux-gnu-gfortran $(Fortran_DEFINES) $(Fortran_INCLUDES) $(Fortran_FLAGS) -E /data1/bladics/externals/bladics--externals--openfast-dice_v3.2.0/modules/aerodyn14/src/AeroSubs.f90 > CMakeFiles/aerodyn14lib.dir/src/AeroSubs.f90.i

modules/aerodyn14/CMakeFiles/aerodyn14lib.dir/src/AeroSubs.f90.s: cmake_force
	@$(CMAKE_COMMAND) -E cmake_echo_color --switch=$(COLOR) --green "Compiling Fortran source to assembly CMakeFiles/aerodyn14lib.dir/src/AeroSubs.f90.s"
	cd /data1/bladics/externals/bladics--externals--openfast-dice_v3.2.0/cmake-build-debug/modules/aerodyn14 && /home/natalia/anaconda3/bin/x86_64-conda-linux-gnu-gfortran $(Fortran_DEFINES) $(Fortran_INCLUDES) $(Fortran_FLAGS) -S /data1/bladics/externals/bladics--externals--openfast-dice_v3.2.0/modules/aerodyn14/src/AeroSubs.f90 -o CMakeFiles/aerodyn14lib.dir/src/AeroSubs.f90.s

modules/aerodyn14/CMakeFiles/aerodyn14lib.dir/src/DWM.f90.o: modules/aerodyn14/CMakeFiles/aerodyn14lib.dir/flags.make
modules/aerodyn14/CMakeFiles/aerodyn14lib.dir/src/DWM.f90.o: ../modules/aerodyn14/src/DWM.f90
	@$(CMAKE_COMMAND) -E cmake_echo_color --switch=$(COLOR) --green --progress-dir=/data1/bladics/externals/bladics--externals--openfast-dice_v3.2.0/cmake-build-debug/CMakeFiles --progress-num=$(CMAKE_PROGRESS_3) "Building Fortran object modules/aerodyn14/CMakeFiles/aerodyn14lib.dir/src/DWM.f90.o"
	cd /data1/bladics/externals/bladics--externals--openfast-dice_v3.2.0/cmake-build-debug/modules/aerodyn14 && /home/natalia/anaconda3/bin/x86_64-conda-linux-gnu-gfortran $(Fortran_DEFINES) $(Fortran_INCLUDES) $(Fortran_FLAGS) -c /data1/bladics/externals/bladics--externals--openfast-dice_v3.2.0/modules/aerodyn14/src/DWM.f90 -o CMakeFiles/aerodyn14lib.dir/src/DWM.f90.o

modules/aerodyn14/CMakeFiles/aerodyn14lib.dir/src/DWM.f90.i: cmake_force
	@$(CMAKE_COMMAND) -E cmake_echo_color --switch=$(COLOR) --green "Preprocessing Fortran source to CMakeFiles/aerodyn14lib.dir/src/DWM.f90.i"
	cd /data1/bladics/externals/bladics--externals--openfast-dice_v3.2.0/cmake-build-debug/modules/aerodyn14 && /home/natalia/anaconda3/bin/x86_64-conda-linux-gnu-gfortran $(Fortran_DEFINES) $(Fortran_INCLUDES) $(Fortran_FLAGS) -E /data1/bladics/externals/bladics--externals--openfast-dice_v3.2.0/modules/aerodyn14/src/DWM.f90 > CMakeFiles/aerodyn14lib.dir/src/DWM.f90.i

modules/aerodyn14/CMakeFiles/aerodyn14lib.dir/src/DWM.f90.s: cmake_force
	@$(CMAKE_COMMAND) -E cmake_echo_color --switch=$(COLOR) --green "Compiling Fortran source to assembly CMakeFiles/aerodyn14lib.dir/src/DWM.f90.s"
	cd /data1/bladics/externals/bladics--externals--openfast-dice_v3.2.0/cmake-build-debug/modules/aerodyn14 && /home/natalia/anaconda3/bin/x86_64-conda-linux-gnu-gfortran $(Fortran_DEFINES) $(Fortran_INCLUDES) $(Fortran_FLAGS) -S /data1/bladics/externals/bladics--externals--openfast-dice_v3.2.0/modules/aerodyn14/src/DWM.f90 -o CMakeFiles/aerodyn14lib.dir/src/DWM.f90.s

modules/aerodyn14/CMakeFiles/aerodyn14lib.dir/src/DWM_Wake_Sub_ver2.f90.o: modules/aerodyn14/CMakeFiles/aerodyn14lib.dir/flags.make
modules/aerodyn14/CMakeFiles/aerodyn14lib.dir/src/DWM_Wake_Sub_ver2.f90.o: ../modules/aerodyn14/src/DWM_Wake_Sub_ver2.f90
	@$(CMAKE_COMMAND) -E cmake_echo_color --switch=$(COLOR) --green --progress-dir=/data1/bladics/externals/bladics--externals--openfast-dice_v3.2.0/cmake-build-debug/CMakeFiles --progress-num=$(CMAKE_PROGRESS_4) "Building Fortran object modules/aerodyn14/CMakeFiles/aerodyn14lib.dir/src/DWM_Wake_Sub_ver2.f90.o"
	cd /data1/bladics/externals/bladics--externals--openfast-dice_v3.2.0/cmake-build-debug/modules/aerodyn14 && /home/natalia/anaconda3/bin/x86_64-conda-linux-gnu-gfortran $(Fortran_DEFINES) $(Fortran_INCLUDES) $(Fortran_FLAGS) -c /data1/bladics/externals/bladics--externals--openfast-dice_v3.2.0/modules/aerodyn14/src/DWM_Wake_Sub_ver2.f90 -o CMakeFiles/aerodyn14lib.dir/src/DWM_Wake_Sub_ver2.f90.o

modules/aerodyn14/CMakeFiles/aerodyn14lib.dir/src/DWM_Wake_Sub_ver2.f90.i: cmake_force
	@$(CMAKE_COMMAND) -E cmake_echo_color --switch=$(COLOR) --green "Preprocessing Fortran source to CMakeFiles/aerodyn14lib.dir/src/DWM_Wake_Sub_ver2.f90.i"
	cd /data1/bladics/externals/bladics--externals--openfast-dice_v3.2.0/cmake-build-debug/modules/aerodyn14 && /home/natalia/anaconda3/bin/x86_64-conda-linux-gnu-gfortran $(Fortran_DEFINES) $(Fortran_INCLUDES) $(Fortran_FLAGS) -E /data1/bladics/externals/bladics--externals--openfast-dice_v3.2.0/modules/aerodyn14/src/DWM_Wake_Sub_ver2.f90 > CMakeFiles/aerodyn14lib.dir/src/DWM_Wake_Sub_ver2.f90.i

modules/aerodyn14/CMakeFiles/aerodyn14lib.dir/src/DWM_Wake_Sub_ver2.f90.s: cmake_force
	@$(CMAKE_COMMAND) -E cmake_echo_color --switch=$(COLOR) --green "Compiling Fortran source to assembly CMakeFiles/aerodyn14lib.dir/src/DWM_Wake_Sub_ver2.f90.s"
	cd /data1/bladics/externals/bladics--externals--openfast-dice_v3.2.0/cmake-build-debug/modules/aerodyn14 && /home/natalia/anaconda3/bin/x86_64-conda-linux-gnu-gfortran $(Fortran_DEFINES) $(Fortran_INCLUDES) $(Fortran_FLAGS) -S /data1/bladics/externals/bladics--externals--openfast-dice_v3.2.0/modules/aerodyn14/src/DWM_Wake_Sub_ver2.f90 -o CMakeFiles/aerodyn14lib.dir/src/DWM_Wake_Sub_ver2.f90.s

modules/aerodyn14/CMakeFiles/aerodyn14lib.dir/src/GenSubs.f90.o: modules/aerodyn14/CMakeFiles/aerodyn14lib.dir/flags.make
modules/aerodyn14/CMakeFiles/aerodyn14lib.dir/src/GenSubs.f90.o: ../modules/aerodyn14/src/GenSubs.f90
	@$(CMAKE_COMMAND) -E cmake_echo_color --switch=$(COLOR) --green --progress-dir=/data1/bladics/externals/bladics--externals--openfast-dice_v3.2.0/cmake-build-debug/CMakeFiles --progress-num=$(CMAKE_PROGRESS_5) "Building Fortran object modules/aerodyn14/CMakeFiles/aerodyn14lib.dir/src/GenSubs.f90.o"
	cd /data1/bladics/externals/bladics--externals--openfast-dice_v3.2.0/cmake-build-debug/modules/aerodyn14 && /home/natalia/anaconda3/bin/x86_64-conda-linux-gnu-gfortran $(Fortran_DEFINES) $(Fortran_INCLUDES) $(Fortran_FLAGS) -c /data1/bladics/externals/bladics--externals--openfast-dice_v3.2.0/modules/aerodyn14/src/GenSubs.f90 -o CMakeFiles/aerodyn14lib.dir/src/GenSubs.f90.o

modules/aerodyn14/CMakeFiles/aerodyn14lib.dir/src/GenSubs.f90.i: cmake_force
	@$(CMAKE_COMMAND) -E cmake_echo_color --switch=$(COLOR) --green "Preprocessing Fortran source to CMakeFiles/aerodyn14lib.dir/src/GenSubs.f90.i"
	cd /data1/bladics/externals/bladics--externals--openfast-dice_v3.2.0/cmake-build-debug/modules/aerodyn14 && /home/natalia/anaconda3/bin/x86_64-conda-linux-gnu-gfortran $(Fortran_DEFINES) $(Fortran_INCLUDES) $(Fortran_FLAGS) -E /data1/bladics/externals/bladics--externals--openfast-dice_v3.2.0/modules/aerodyn14/src/GenSubs.f90 > CMakeFiles/aerodyn14lib.dir/src/GenSubs.f90.i

modules/aerodyn14/CMakeFiles/aerodyn14lib.dir/src/GenSubs.f90.s: cmake_force
	@$(CMAKE_COMMAND) -E cmake_echo_color --switch=$(COLOR) --green "Compiling Fortran source to assembly CMakeFiles/aerodyn14lib.dir/src/GenSubs.f90.s"
	cd /data1/bladics/externals/bladics--externals--openfast-dice_v3.2.0/cmake-build-debug/modules/aerodyn14 && /home/natalia/anaconda3/bin/x86_64-conda-linux-gnu-gfortran $(Fortran_DEFINES) $(Fortran_INCLUDES) $(Fortran_FLAGS) -S /data1/bladics/externals/bladics--externals--openfast-dice_v3.2.0/modules/aerodyn14/src/GenSubs.f90 -o CMakeFiles/aerodyn14lib.dir/src/GenSubs.f90.s

modules/aerodyn14/CMakeFiles/aerodyn14lib.dir/src/AeroDyn14_Types.f90.o: modules/aerodyn14/CMakeFiles/aerodyn14lib.dir/flags.make
modules/aerodyn14/CMakeFiles/aerodyn14lib.dir/src/AeroDyn14_Types.f90.o: ../modules/aerodyn14/src/AeroDyn14_Types.f90
	@$(CMAKE_COMMAND) -E cmake_echo_color --switch=$(COLOR) --green --progress-dir=/data1/bladics/externals/bladics--externals--openfast-dice_v3.2.0/cmake-build-debug/CMakeFiles --progress-num=$(CMAKE_PROGRESS_6) "Building Fortran object modules/aerodyn14/CMakeFiles/aerodyn14lib.dir/src/AeroDyn14_Types.f90.o"
	cd /data1/bladics/externals/bladics--externals--openfast-dice_v3.2.0/cmake-build-debug/modules/aerodyn14 && /home/natalia/anaconda3/bin/x86_64-conda-linux-gnu-gfortran $(Fortran_DEFINES) $(Fortran_INCLUDES) $(Fortran_FLAGS) -c /data1/bladics/externals/bladics--externals--openfast-dice_v3.2.0/modules/aerodyn14/src/AeroDyn14_Types.f90 -o CMakeFiles/aerodyn14lib.dir/src/AeroDyn14_Types.f90.o

modules/aerodyn14/CMakeFiles/aerodyn14lib.dir/src/AeroDyn14_Types.f90.i: cmake_force
	@$(CMAKE_COMMAND) -E cmake_echo_color --switch=$(COLOR) --green "Preprocessing Fortran source to CMakeFiles/aerodyn14lib.dir/src/AeroDyn14_Types.f90.i"
	cd /data1/bladics/externals/bladics--externals--openfast-dice_v3.2.0/cmake-build-debug/modules/aerodyn14 && /home/natalia/anaconda3/bin/x86_64-conda-linux-gnu-gfortran $(Fortran_DEFINES) $(Fortran_INCLUDES) $(Fortran_FLAGS) -E /data1/bladics/externals/bladics--externals--openfast-dice_v3.2.0/modules/aerodyn14/src/AeroDyn14_Types.f90 > CMakeFiles/aerodyn14lib.dir/src/AeroDyn14_Types.f90.i

modules/aerodyn14/CMakeFiles/aerodyn14lib.dir/src/AeroDyn14_Types.f90.s: cmake_force
	@$(CMAKE_COMMAND) -E cmake_echo_color --switch=$(COLOR) --green "Compiling Fortran source to assembly CMakeFiles/aerodyn14lib.dir/src/AeroDyn14_Types.f90.s"
	cd /data1/bladics/externals/bladics--externals--openfast-dice_v3.2.0/cmake-build-debug/modules/aerodyn14 && /home/natalia/anaconda3/bin/x86_64-conda-linux-gnu-gfortran $(Fortran_DEFINES) $(Fortran_INCLUDES) $(Fortran_FLAGS) -S /data1/bladics/externals/bladics--externals--openfast-dice_v3.2.0/modules/aerodyn14/src/AeroDyn14_Types.f90 -o CMakeFiles/aerodyn14lib.dir/src/AeroDyn14_Types.f90.s

modules/aerodyn14/CMakeFiles/aerodyn14lib.dir/src/DWM_Types.f90.o: modules/aerodyn14/CMakeFiles/aerodyn14lib.dir/flags.make
modules/aerodyn14/CMakeFiles/aerodyn14lib.dir/src/DWM_Types.f90.o: ../modules/aerodyn14/src/DWM_Types.f90
	@$(CMAKE_COMMAND) -E cmake_echo_color --switch=$(COLOR) --green --progress-dir=/data1/bladics/externals/bladics--externals--openfast-dice_v3.2.0/cmake-build-debug/CMakeFiles --progress-num=$(CMAKE_PROGRESS_7) "Building Fortran object modules/aerodyn14/CMakeFiles/aerodyn14lib.dir/src/DWM_Types.f90.o"
	cd /data1/bladics/externals/bladics--externals--openfast-dice_v3.2.0/cmake-build-debug/modules/aerodyn14 && /home/natalia/anaconda3/bin/x86_64-conda-linux-gnu-gfortran $(Fortran_DEFINES) $(Fortran_INCLUDES) $(Fortran_FLAGS) -c /data1/bladics/externals/bladics--externals--openfast-dice_v3.2.0/modules/aerodyn14/src/DWM_Types.f90 -o CMakeFiles/aerodyn14lib.dir/src/DWM_Types.f90.o

modules/aerodyn14/CMakeFiles/aerodyn14lib.dir/src/DWM_Types.f90.i: cmake_force
	@$(CMAKE_COMMAND) -E cmake_echo_color --switch=$(COLOR) --green "Preprocessing Fortran source to CMakeFiles/aerodyn14lib.dir/src/DWM_Types.f90.i"
	cd /data1/bladics/externals/bladics--externals--openfast-dice_v3.2.0/cmake-build-debug/modules/aerodyn14 && /home/natalia/anaconda3/bin/x86_64-conda-linux-gnu-gfortran $(Fortran_DEFINES) $(Fortran_INCLUDES) $(Fortran_FLAGS) -E /data1/bladics/externals/bladics--externals--openfast-dice_v3.2.0/modules/aerodyn14/src/DWM_Types.f90 > CMakeFiles/aerodyn14lib.dir/src/DWM_Types.f90.i

modules/aerodyn14/CMakeFiles/aerodyn14lib.dir/src/DWM_Types.f90.s: cmake_force
	@$(CMAKE_COMMAND) -E cmake_echo_color --switch=$(COLOR) --green "Compiling Fortran source to assembly CMakeFiles/aerodyn14lib.dir/src/DWM_Types.f90.s"
	cd /data1/bladics/externals/bladics--externals--openfast-dice_v3.2.0/cmake-build-debug/modules/aerodyn14 && /home/natalia/anaconda3/bin/x86_64-conda-linux-gnu-gfortran $(Fortran_DEFINES) $(Fortran_INCLUDES) $(Fortran_FLAGS) -S /data1/bladics/externals/bladics--externals--openfast-dice_v3.2.0/modules/aerodyn14/src/DWM_Types.f90 -o CMakeFiles/aerodyn14lib.dir/src/DWM_Types.f90.s

# Object files for target aerodyn14lib
aerodyn14lib_OBJECTS = \
"CMakeFiles/aerodyn14lib.dir/src/AeroDyn14.f90.o" \
"CMakeFiles/aerodyn14lib.dir/src/AeroSubs.f90.o" \
"CMakeFiles/aerodyn14lib.dir/src/DWM.f90.o" \
"CMakeFiles/aerodyn14lib.dir/src/DWM_Wake_Sub_ver2.f90.o" \
"CMakeFiles/aerodyn14lib.dir/src/GenSubs.f90.o" \
"CMakeFiles/aerodyn14lib.dir/src/AeroDyn14_Types.f90.o" \
"CMakeFiles/aerodyn14lib.dir/src/DWM_Types.f90.o"

# External object files for target aerodyn14lib
aerodyn14lib_EXTERNAL_OBJECTS =

modules/aerodyn14/libaerodyn14lib.a: modules/aerodyn14/CMakeFiles/aerodyn14lib.dir/src/AeroDyn14.f90.o
modules/aerodyn14/libaerodyn14lib.a: modules/aerodyn14/CMakeFiles/aerodyn14lib.dir/src/AeroSubs.f90.o
modules/aerodyn14/libaerodyn14lib.a: modules/aerodyn14/CMakeFiles/aerodyn14lib.dir/src/DWM.f90.o
modules/aerodyn14/libaerodyn14lib.a: modules/aerodyn14/CMakeFiles/aerodyn14lib.dir/src/DWM_Wake_Sub_ver2.f90.o
modules/aerodyn14/libaerodyn14lib.a: modules/aerodyn14/CMakeFiles/aerodyn14lib.dir/src/GenSubs.f90.o
modules/aerodyn14/libaerodyn14lib.a: modules/aerodyn14/CMakeFiles/aerodyn14lib.dir/src/AeroDyn14_Types.f90.o
modules/aerodyn14/libaerodyn14lib.a: modules/aerodyn14/CMakeFiles/aerodyn14lib.dir/src/DWM_Types.f90.o
modules/aerodyn14/libaerodyn14lib.a: modules/aerodyn14/CMakeFiles/aerodyn14lib.dir/build.make
modules/aerodyn14/libaerodyn14lib.a: modules/aerodyn14/CMakeFiles/aerodyn14lib.dir/link.txt
	@$(CMAKE_COMMAND) -E cmake_echo_color --switch=$(COLOR) --green --bold --progress-dir=/data1/bladics/externals/bladics--externals--openfast-dice_v3.2.0/cmake-build-debug/CMakeFiles --progress-num=$(CMAKE_PROGRESS_8) "Linking Fortran static library libaerodyn14lib.a"
	cd /data1/bladics/externals/bladics--externals--openfast-dice_v3.2.0/cmake-build-debug/modules/aerodyn14 && $(CMAKE_COMMAND) -P CMakeFiles/aerodyn14lib.dir/cmake_clean_target.cmake
	cd /data1/bladics/externals/bladics--externals--openfast-dice_v3.2.0/cmake-build-debug/modules/aerodyn14 && $(CMAKE_COMMAND) -E cmake_link_script CMakeFiles/aerodyn14lib.dir/link.txt --verbose=$(VERBOSE)

# Rule to build all files generated by this target.
modules/aerodyn14/CMakeFiles/aerodyn14lib.dir/build: modules/aerodyn14/libaerodyn14lib.a

.PHONY : modules/aerodyn14/CMakeFiles/aerodyn14lib.dir/build

modules/aerodyn14/CMakeFiles/aerodyn14lib.dir/clean:
	cd /data1/bladics/externals/bladics--externals--openfast-dice_v3.2.0/cmake-build-debug/modules/aerodyn14 && $(CMAKE_COMMAND) -P CMakeFiles/aerodyn14lib.dir/cmake_clean.cmake
.PHONY : modules/aerodyn14/CMakeFiles/aerodyn14lib.dir/clean

modules/aerodyn14/CMakeFiles/aerodyn14lib.dir/depend:
	cd /data1/bladics/externals/bladics--externals--openfast-dice_v3.2.0/cmake-build-debug && $(CMAKE_COMMAND) -E cmake_depends "Unix Makefiles" /data1/bladics/externals/bladics--externals--openfast-dice_v3.2.0 /data1/bladics/externals/bladics--externals--openfast-dice_v3.2.0/modules/aerodyn14 /data1/bladics/externals/bladics--externals--openfast-dice_v3.2.0/cmake-build-debug /data1/bladics/externals/bladics--externals--openfast-dice_v3.2.0/cmake-build-debug/modules/aerodyn14 /data1/bladics/externals/bladics--externals--openfast-dice_v3.2.0/cmake-build-debug/modules/aerodyn14/CMakeFiles/aerodyn14lib.dir/DependInfo.cmake --color=$(COLOR)
.PHONY : modules/aerodyn14/CMakeFiles/aerodyn14lib.dir/depend

