/home/natalia/anaconda3/bin/x86_64-conda-linux-gnu-gfortran -fPIC -fopenmp -march=nocona -mtune=haswell -ftree-vectorize -fPIC -fstack-protector-strong -fno-plt -O2 -ffunction-sections -pipe -isystem /home/natalia/miniconda3/include -fpic  -ffree-line-length-none -cpp -fstack-reuse=none -fdefault-real-8 -g -fcheck=all,no-array-temps -pedantic -fbacktrace -finit-real=inf -finit-integer=9999. -Wl,-O2 -Wl,--sort-common -Wl,--as-needed -Wl,-z,relro -Wl,-z,now -Wl,--disable-new-dtags -Wl,--gc-sections -Wl,-rpath,/home/natalia/miniconda3/lib -Wl,-rpath-link,/home/natalia/miniconda3/lib -L/home/natalia/miniconda3/lib -shared -Wl,-soname,libhydrodyn_c_binding.so -o libhydrodyn_c_binding.so CMakeFiles/hydrodyn_c_binding.dir/src/HydroDyn_C_Binding.f90.o -Wl,-rpath,/home/natalia/anaconda3/lib:::::::::::::::::::::::::::::::::::::::::::::::::::::::::::::::::::::::::::::: libhydrodynlib.a ../nwtc-library/libnwtclibs.a /home/natalia/anaconda3/lib/libmkl_gf_lp64.so /home/natalia/anaconda3/lib/libmkl_gnu_thread.so /home/natalia/anaconda3/lib/libmkl_core.so /home/natalia/anaconda3/lib/libgomp.so -lpthread -lm -ldl -ldl 
