# CMAKE generated file: DO NOT EDIT!
# Generated by "Unix Makefiles" Generator, CMake Version 3.15

# Delete rule output on recipe failure.
.DELETE_ON_ERROR:


#=============================================================================
# Special targets provided by cmake.

# Disable implicit rules so canonical targets will work.
.SUFFIXES:


# Remove some rules from gmake that .SUFFIXES does not remove.
SUFFIXES =

.SUFFIXES: .hpux_make_needs_suffix_list


# Suppress display of executed commands.
$(VERBOSE).SILENT:


# A target that is always out of date.
cmake_force:

.PHONY : cmake_force

#=============================================================================
# Set environment variables for the build.

# The shell in which to execute make rules.
SHELL = /bin/sh

# The CMake executable.
CMAKE_COMMAND = /home/natalia/.local/share/JetBrains/Toolbox/apps/CLion/ch-0/193.6911.21/bin/cmake/linux/bin/cmake

# The command to remove a file.
RM = /home/natalia/.local/share/JetBrains/Toolbox/apps/CLion/ch-0/193.6911.21/bin/cmake/linux/bin/cmake -E remove -f

# Escaping for special characters.
EQUALS = =

# The top-level source directory on which CMake was run.
CMAKE_SOURCE_DIR = /data1/bladics/externals/bladics--externals--openfast-dice_v3.2.0

# The top-level build directory on which CMake was run.
CMAKE_BINARY_DIR = /data1/bladics/externals/bladics--externals--openfast-dice_v3.2.0/cmake-build-debug

# Include any dependencies generated for this target.
include modules/elastodyn/CMakeFiles/elastodynlib.dir/depend.make

# Include the progress variables for this target.
include modules/elastodyn/CMakeFiles/elastodynlib.dir/progress.make

# Include the compile flags for this target's objects.
include modules/elastodyn/CMakeFiles/elastodynlib.dir/flags.make

modules/elastodyn/CMakeFiles/elastodynlib.dir/src/ElastoDyn.f90.o: modules/elastodyn/CMakeFiles/elastodynlib.dir/flags.make
modules/elastodyn/CMakeFiles/elastodynlib.dir/src/ElastoDyn.f90.o: ../modules/elastodyn/src/ElastoDyn.f90
	@$(CMAKE_COMMAND) -E cmake_echo_color --switch=$(COLOR) --green --progress-dir=/data1/bladics/externals/bladics--externals--openfast-dice_v3.2.0/cmake-build-debug/CMakeFiles --progress-num=$(CMAKE_PROGRESS_1) "Building Fortran object modules/elastodyn/CMakeFiles/elastodynlib.dir/src/ElastoDyn.f90.o"
	cd /data1/bladics/externals/bladics--externals--openfast-dice_v3.2.0/cmake-build-debug/modules/elastodyn && /home/natalia/anaconda3/bin/x86_64-conda-linux-gnu-gfortran $(Fortran_DEFINES) $(Fortran_INCLUDES) $(Fortran_FLAGS) -c /data1/bladics/externals/bladics--externals--openfast-dice_v3.2.0/modules/elastodyn/src/ElastoDyn.f90 -o CMakeFiles/elastodynlib.dir/src/ElastoDyn.f90.o

modules/elastodyn/CMakeFiles/elastodynlib.dir/src/ElastoDyn.f90.i: cmake_force
	@$(CMAKE_COMMAND) -E cmake_echo_color --switch=$(COLOR) --green "Preprocessing Fortran source to CMakeFiles/elastodynlib.dir/src/ElastoDyn.f90.i"
	cd /data1/bladics/externals/bladics--externals--openfast-dice_v3.2.0/cmake-build-debug/modules/elastodyn && /home/natalia/anaconda3/bin/x86_64-conda-linux-gnu-gfortran $(Fortran_DEFINES) $(Fortran_INCLUDES) $(Fortran_FLAGS) -E /data1/bladics/externals/bladics--externals--openfast-dice_v3.2.0/modules/elastodyn/src/ElastoDyn.f90 > CMakeFiles/elastodynlib.dir/src/ElastoDyn.f90.i

modules/elastodyn/CMakeFiles/elastodynlib.dir/src/ElastoDyn.f90.s: cmake_force
	@$(CMAKE_COMMAND) -E cmake_echo_color --switch=$(COLOR) --green "Compiling Fortran source to assembly CMakeFiles/elastodynlib.dir/src/ElastoDyn.f90.s"
	cd /data1/bladics/externals/bladics--externals--openfast-dice_v3.2.0/cmake-build-debug/modules/elastodyn && /home/natalia/anaconda3/bin/x86_64-conda-linux-gnu-gfortran $(Fortran_DEFINES) $(Fortran_INCLUDES) $(Fortran_FLAGS) -S /data1/bladics/externals/bladics--externals--openfast-dice_v3.2.0/modules/elastodyn/src/ElastoDyn.f90 -o CMakeFiles/elastodynlib.dir/src/ElastoDyn.f90.s

modules/elastodyn/CMakeFiles/elastodynlib.dir/src/ElastoDyn_IO.f90.o: modules/elastodyn/CMakeFiles/elastodynlib.dir/flags.make
modules/elastodyn/CMakeFiles/elastodynlib.dir/src/ElastoDyn_IO.f90.o: ../modules/elastodyn/src/ElastoDyn_IO.f90
	@$(CMAKE_COMMAND) -E cmake_echo_color --switch=$(COLOR) --green --progress-dir=/data1/bladics/externals/bladics--externals--openfast-dice_v3.2.0/cmake-build-debug/CMakeFiles --progress-num=$(CMAKE_PROGRESS_2) "Building Fortran object modules/elastodyn/CMakeFiles/elastodynlib.dir/src/ElastoDyn_IO.f90.o"
	cd /data1/bladics/externals/bladics--externals--openfast-dice_v3.2.0/cmake-build-debug/modules/elastodyn && /home/natalia/anaconda3/bin/x86_64-conda-linux-gnu-gfortran $(Fortran_DEFINES) $(Fortran_INCLUDES) $(Fortran_FLAGS) -c /data1/bladics/externals/bladics--externals--openfast-dice_v3.2.0/modules/elastodyn/src/ElastoDyn_IO.f90 -o CMakeFiles/elastodynlib.dir/src/ElastoDyn_IO.f90.o

modules/elastodyn/CMakeFiles/elastodynlib.dir/src/ElastoDyn_IO.f90.i: cmake_force
	@$(CMAKE_COMMAND) -E cmake_echo_color --switch=$(COLOR) --green "Preprocessing Fortran source to CMakeFiles/elastodynlib.dir/src/ElastoDyn_IO.f90.i"
	cd /data1/bladics/externals/bladics--externals--openfast-dice_v3.2.0/cmake-build-debug/modules/elastodyn && /home/natalia/anaconda3/bin/x86_64-conda-linux-gnu-gfortran $(Fortran_DEFINES) $(Fortran_INCLUDES) $(Fortran_FLAGS) -E /data1/bladics/externals/bladics--externals--openfast-dice_v3.2.0/modules/elastodyn/src/ElastoDyn_IO.f90 > CMakeFiles/elastodynlib.dir/src/ElastoDyn_IO.f90.i

modules/elastodyn/CMakeFiles/elastodynlib.dir/src/ElastoDyn_IO.f90.s: cmake_force
	@$(CMAKE_COMMAND) -E cmake_echo_color --switch=$(COLOR) --green "Compiling Fortran source to assembly CMakeFiles/elastodynlib.dir/src/ElastoDyn_IO.f90.s"
	cd /data1/bladics/externals/bladics--externals--openfast-dice_v3.2.0/cmake-build-debug/modules/elastodyn && /home/natalia/anaconda3/bin/x86_64-conda-linux-gnu-gfortran $(Fortran_DEFINES) $(Fortran_INCLUDES) $(Fortran_FLAGS) -S /data1/bladics/externals/bladics--externals--openfast-dice_v3.2.0/modules/elastodyn/src/ElastoDyn_IO.f90 -o CMakeFiles/elastodynlib.dir/src/ElastoDyn_IO.f90.s

modules/elastodyn/CMakeFiles/elastodynlib.dir/src/ElastoDyn_AllBldNdOuts_IO.f90.o: modules/elastodyn/CMakeFiles/elastodynlib.dir/flags.make
modules/elastodyn/CMakeFiles/elastodynlib.dir/src/ElastoDyn_AllBldNdOuts_IO.f90.o: ../modules/elastodyn/src/ElastoDyn_AllBldNdOuts_IO.f90
	@$(CMAKE_COMMAND) -E cmake_echo_color --switch=$(COLOR) --green --progress-dir=/data1/bladics/externals/bladics--externals--openfast-dice_v3.2.0/cmake-build-debug/CMakeFiles --progress-num=$(CMAKE_PROGRESS_3) "Building Fortran object modules/elastodyn/CMakeFiles/elastodynlib.dir/src/ElastoDyn_AllBldNdOuts_IO.f90.o"
	cd /data1/bladics/externals/bladics--externals--openfast-dice_v3.2.0/cmake-build-debug/modules/elastodyn && /home/natalia/anaconda3/bin/x86_64-conda-linux-gnu-gfortran $(Fortran_DEFINES) $(Fortran_INCLUDES) $(Fortran_FLAGS) -c /data1/bladics/externals/bladics--externals--openfast-dice_v3.2.0/modules/elastodyn/src/ElastoDyn_AllBldNdOuts_IO.f90 -o CMakeFiles/elastodynlib.dir/src/ElastoDyn_AllBldNdOuts_IO.f90.o

modules/elastodyn/CMakeFiles/elastodynlib.dir/src/ElastoDyn_AllBldNdOuts_IO.f90.i: cmake_force
	@$(CMAKE_COMMAND) -E cmake_echo_color --switch=$(COLOR) --green "Preprocessing Fortran source to CMakeFiles/elastodynlib.dir/src/ElastoDyn_AllBldNdOuts_IO.f90.i"
	cd /data1/bladics/externals/bladics--externals--openfast-dice_v3.2.0/cmake-build-debug/modules/elastodyn && /home/natalia/anaconda3/bin/x86_64-conda-linux-gnu-gfortran $(Fortran_DEFINES) $(Fortran_INCLUDES) $(Fortran_FLAGS) -E /data1/bladics/externals/bladics--externals--openfast-dice_v3.2.0/modules/elastodyn/src/ElastoDyn_AllBldNdOuts_IO.f90 > CMakeFiles/elastodynlib.dir/src/ElastoDyn_AllBldNdOuts_IO.f90.i

modules/elastodyn/CMakeFiles/elastodynlib.dir/src/ElastoDyn_AllBldNdOuts_IO.f90.s: cmake_force
	@$(CMAKE_COMMAND) -E cmake_echo_color --switch=$(COLOR) --green "Compiling Fortran source to assembly CMakeFiles/elastodynlib.dir/src/ElastoDyn_AllBldNdOuts_IO.f90.s"
	cd /data1/bladics/externals/bladics--externals--openfast-dice_v3.2.0/cmake-build-debug/modules/elastodyn && /home/natalia/anaconda3/bin/x86_64-conda-linux-gnu-gfortran $(Fortran_DEFINES) $(Fortran_INCLUDES) $(Fortran_FLAGS) -S /data1/bladics/externals/bladics--externals--openfast-dice_v3.2.0/modules/elastodyn/src/ElastoDyn_AllBldNdOuts_IO.f90 -o CMakeFiles/elastodynlib.dir/src/ElastoDyn_AllBldNdOuts_IO.f90.s

modules/elastodyn/CMakeFiles/elastodynlib.dir/src/ED_UserSubs.f90.o: modules/elastodyn/CMakeFiles/elastodynlib.dir/flags.make
modules/elastodyn/CMakeFiles/elastodynlib.dir/src/ED_UserSubs.f90.o: ../modules/elastodyn/src/ED_UserSubs.f90
	@$(CMAKE_COMMAND) -E cmake_echo_color --switch=$(COLOR) --green --progress-dir=/data1/bladics/externals/bladics--externals--openfast-dice_v3.2.0/cmake-build-debug/CMakeFiles --progress-num=$(CMAKE_PROGRESS_4) "Building Fortran object modules/elastodyn/CMakeFiles/elastodynlib.dir/src/ED_UserSubs.f90.o"
	cd /data1/bladics/externals/bladics--externals--openfast-dice_v3.2.0/cmake-build-debug/modules/elastodyn && /home/natalia/anaconda3/bin/x86_64-conda-linux-gnu-gfortran $(Fortran_DEFINES) $(Fortran_INCLUDES) $(Fortran_FLAGS) -c /data1/bladics/externals/bladics--externals--openfast-dice_v3.2.0/modules/elastodyn/src/ED_UserSubs.f90 -o CMakeFiles/elastodynlib.dir/src/ED_UserSubs.f90.o

modules/elastodyn/CMakeFiles/elastodynlib.dir/src/ED_UserSubs.f90.i: cmake_force
	@$(CMAKE_COMMAND) -E cmake_echo_color --switch=$(COLOR) --green "Preprocessing Fortran source to CMakeFiles/elastodynlib.dir/src/ED_UserSubs.f90.i"
	cd /data1/bladics/externals/bladics--externals--openfast-dice_v3.2.0/cmake-build-debug/modules/elastodyn && /home/natalia/anaconda3/bin/x86_64-conda-linux-gnu-gfortran $(Fortran_DEFINES) $(Fortran_INCLUDES) $(Fortran_FLAGS) -E /data1/bladics/externals/bladics--externals--openfast-dice_v3.2.0/modules/elastodyn/src/ED_UserSubs.f90 > CMakeFiles/elastodynlib.dir/src/ED_UserSubs.f90.i

modules/elastodyn/CMakeFiles/elastodynlib.dir/src/ED_UserSubs.f90.s: cmake_force
	@$(CMAKE_COMMAND) -E cmake_echo_color --switch=$(COLOR) --green "Compiling Fortran source to assembly CMakeFiles/elastodynlib.dir/src/ED_UserSubs.f90.s"
	cd /data1/bladics/externals/bladics--externals--openfast-dice_v3.2.0/cmake-build-debug/modules/elastodyn && /home/natalia/anaconda3/bin/x86_64-conda-linux-gnu-gfortran $(Fortran_DEFINES) $(Fortran_INCLUDES) $(Fortran_FLAGS) -S /data1/bladics/externals/bladics--externals--openfast-dice_v3.2.0/modules/elastodyn/src/ED_UserSubs.f90 -o CMakeFiles/elastodynlib.dir/src/ED_UserSubs.f90.s

modules/elastodyn/CMakeFiles/elastodynlib.dir/src/ElastoDyn_Types.f90.o: modules/elastodyn/CMakeFiles/elastodynlib.dir/flags.make
modules/elastodyn/CMakeFiles/elastodynlib.dir/src/ElastoDyn_Types.f90.o: ../modules/elastodyn/src/ElastoDyn_Types.f90
	@$(CMAKE_COMMAND) -E cmake_echo_color --switch=$(COLOR) --green --progress-dir=/data1/bladics/externals/bladics--externals--openfast-dice_v3.2.0/cmake-build-debug/CMakeFiles --progress-num=$(CMAKE_PROGRESS_5) "Building Fortran object modules/elastodyn/CMakeFiles/elastodynlib.dir/src/ElastoDyn_Types.f90.o"
	cd /data1/bladics/externals/bladics--externals--openfast-dice_v3.2.0/cmake-build-debug/modules/elastodyn && /home/natalia/anaconda3/bin/x86_64-conda-linux-gnu-gfortran $(Fortran_DEFINES) $(Fortran_INCLUDES) $(Fortran_FLAGS) -c /data1/bladics/externals/bladics--externals--openfast-dice_v3.2.0/modules/elastodyn/src/ElastoDyn_Types.f90 -o CMakeFiles/elastodynlib.dir/src/ElastoDyn_Types.f90.o

modules/elastodyn/CMakeFiles/elastodynlib.dir/src/ElastoDyn_Types.f90.i: cmake_force
	@$(CMAKE_COMMAND) -E cmake_echo_color --switch=$(COLOR) --green "Preprocessing Fortran source to CMakeFiles/elastodynlib.dir/src/ElastoDyn_Types.f90.i"
	cd /data1/bladics/externals/bladics--externals--openfast-dice_v3.2.0/cmake-build-debug/modules/elastodyn && /home/natalia/anaconda3/bin/x86_64-conda-linux-gnu-gfortran $(Fortran_DEFINES) $(Fortran_INCLUDES) $(Fortran_FLAGS) -E /data1/bladics/externals/bladics--externals--openfast-dice_v3.2.0/modules/elastodyn/src/ElastoDyn_Types.f90 > CMakeFiles/elastodynlib.dir/src/ElastoDyn_Types.f90.i

modules/elastodyn/CMakeFiles/elastodynlib.dir/src/ElastoDyn_Types.f90.s: cmake_force
	@$(CMAKE_COMMAND) -E cmake_echo_color --switch=$(COLOR) --green "Compiling Fortran source to assembly CMakeFiles/elastodynlib.dir/src/ElastoDyn_Types.f90.s"
	cd /data1/bladics/externals/bladics--externals--openfast-dice_v3.2.0/cmake-build-debug/modules/elastodyn && /home/natalia/anaconda3/bin/x86_64-conda-linux-gnu-gfortran $(Fortran_DEFINES) $(Fortran_INCLUDES) $(Fortran_FLAGS) -S /data1/bladics/externals/bladics--externals--openfast-dice_v3.2.0/modules/elastodyn/src/ElastoDyn_Types.f90 -o CMakeFiles/elastodynlib.dir/src/ElastoDyn_Types.f90.s

# Object files for target elastodynlib
elastodynlib_OBJECTS = \
"CMakeFiles/elastodynlib.dir/src/ElastoDyn.f90.o" \
"CMakeFiles/elastodynlib.dir/src/ElastoDyn_IO.f90.o" \
"CMakeFiles/elastodynlib.dir/src/ElastoDyn_AllBldNdOuts_IO.f90.o" \
"CMakeFiles/elastodynlib.dir/src/ED_UserSubs.f90.o" \
"CMakeFiles/elastodynlib.dir/src/ElastoDyn_Types.f90.o"

# External object files for target elastodynlib
elastodynlib_EXTERNAL_OBJECTS =

modules/elastodyn/libelastodynlib.a: modules/elastodyn/CMakeFiles/elastodynlib.dir/src/ElastoDyn.f90.o
modules/elastodyn/libelastodynlib.a: modules/elastodyn/CMakeFiles/elastodynlib.dir/src/ElastoDyn_IO.f90.o
modules/elastodyn/libelastodynlib.a: modules/elastodyn/CMakeFiles/elastodynlib.dir/src/ElastoDyn_AllBldNdOuts_IO.f90.o
modules/elastodyn/libelastodynlib.a: modules/elastodyn/CMakeFiles/elastodynlib.dir/src/ED_UserSubs.f90.o
modules/elastodyn/libelastodynlib.a: modules/elastodyn/CMakeFiles/elastodynlib.dir/src/ElastoDyn_Types.f90.o
modules/elastodyn/libelastodynlib.a: modules/elastodyn/CMakeFiles/elastodynlib.dir/build.make
modules/elastodyn/libelastodynlib.a: modules/elastodyn/CMakeFiles/elastodynlib.dir/link.txt
	@$(CMAKE_COMMAND) -E cmake_echo_color --switch=$(COLOR) --green --bold --progress-dir=/data1/bladics/externals/bladics--externals--openfast-dice_v3.2.0/cmake-build-debug/CMakeFiles --progress-num=$(CMAKE_PROGRESS_6) "Linking Fortran static library libelastodynlib.a"
	cd /data1/bladics/externals/bladics--externals--openfast-dice_v3.2.0/cmake-build-debug/modules/elastodyn && $(CMAKE_COMMAND) -P CMakeFiles/elastodynlib.dir/cmake_clean_target.cmake
	cd /data1/bladics/externals/bladics--externals--openfast-dice_v3.2.0/cmake-build-debug/modules/elastodyn && $(CMAKE_COMMAND) -E cmake_link_script CMakeFiles/elastodynlib.dir/link.txt --verbose=$(VERBOSE)

# Rule to build all files generated by this target.
modules/elastodyn/CMakeFiles/elastodynlib.dir/build: modules/elastodyn/libelastodynlib.a

.PHONY : modules/elastodyn/CMakeFiles/elastodynlib.dir/build

modules/elastodyn/CMakeFiles/elastodynlib.dir/clean:
	cd /data1/bladics/externals/bladics--externals--openfast-dice_v3.2.0/cmake-build-debug/modules/elastodyn && $(CMAKE_COMMAND) -P CMakeFiles/elastodynlib.dir/cmake_clean.cmake
.PHONY : modules/elastodyn/CMakeFiles/elastodynlib.dir/clean

modules/elastodyn/CMakeFiles/elastodynlib.dir/depend:
	cd /data1/bladics/externals/bladics--externals--openfast-dice_v3.2.0/cmake-build-debug && $(CMAKE_COMMAND) -E cmake_depends "Unix Makefiles" /data1/bladics/externals/bladics--externals--openfast-dice_v3.2.0 /data1/bladics/externals/bladics--externals--openfast-dice_v3.2.0/modules/elastodyn /data1/bladics/externals/bladics--externals--openfast-dice_v3.2.0/cmake-build-debug /data1/bladics/externals/bladics--externals--openfast-dice_v3.2.0/cmake-build-debug/modules/elastodyn /data1/bladics/externals/bladics--externals--openfast-dice_v3.2.0/cmake-build-debug/modules/elastodyn/CMakeFiles/elastodynlib.dir/DependInfo.cmake --color=$(COLOR)
.PHONY : modules/elastodyn/CMakeFiles/elastodynlib.dir/depend

