# CMAKE generated file: DO NOT EDIT!
# Generated by "Unix Makefiles" Generator, CMake Version 3.15

modules/elastodyn/CMakeFiles/elastodynlib.dir/src/ED_UserSubs.f90.o
 /data1/bladics/externals/bladics--externals--openfast-dice_v3.2.0/modules/elastodyn/src/ED_UserSubs.f90
modules/elastodyn/CMakeFiles/elastodynlib.dir/src/ElastoDyn.f90.o
 /data1/bladics/externals/bladics--externals--openfast-dice_v3.2.0/modules/elastodyn/src/ElastoDyn.f90
modules/elastodyn/CMakeFiles/elastodynlib.dir/src/ElastoDyn_AllBldNdOuts_IO.f90.o
 /data1/bladics/externals/bladics--externals--openfast-dice_v3.2.0/modules/elastodyn/src/ElastoDyn_AllBldNdOuts_IO.f90
modules/elastodyn/CMakeFiles/elastodynlib.dir/src/ElastoDyn_IO.f90.o
 /data1/bladics/externals/bladics--externals--openfast-dice_v3.2.0/modules/elastodyn/src/ElastoDyn_IO.f90
modules/elastodyn/CMakeFiles/elastodynlib.dir/src/ElastoDyn_Types.f90.o
 /data1/bladics/externals/bladics--externals--openfast-dice_v3.2.0/modules/elastodyn/src/ElastoDyn_Types.f90
