# This is the CMakeCache file.
# For build in directory: /data1/bladics/externals/bladics--externals--openfast-dice_v3.2.0/cmake-build-debug
# It was generated by CMake: /home/natalia/.local/share/JetBrains/Toolbox/apps/CLion/ch-0/193.6911.21/bin/cmake/linux/bin/cmake
# You can edit this file to change values found and used by cmake.
# If you do not want to change any of the values, simply exit the editor.
# If you do want to change a value, simply edit, save, and exit the editor.
# The syntax for the file is as follows:
# KEY:TYPE=VALUE
# KEY is the name of a variable in the cache.
# TYPE is a hint to GUIs for the type of VALUE, DO NOT EDIT TYPE!.
# VALUE is the current value for the KEY.

########################
# EXTERNAL cache entries
########################

//Path to a library.
BLAS_gomp_LIBRARY:FILEPATH=/home/natalia/anaconda3/lib/libgomp.so

//Path to a library.
BLAS_guide_LIBRARY:FILEPATH=BLAS_guide_LIBRARY-NOTFOUND

//Path to a library.
BLAS_mkl_core_LIBRARY:FILEPATH=/home/natalia/anaconda3/lib/libmkl_core.so

//Path to a library.
BLAS_mkl_gf_LIBRARY:FILEPATH=BLAS_mkl_gf_LIBRARY-NOTFOUND

//Path to a library.
BLAS_mkl_gf_lp64_LIBRARY:FILEPATH=/home/natalia/anaconda3/lib/libmkl_gf_lp64.so

//Path to a library.
BLAS_mkl_gnu_thread_LIBRARY:FILEPATH=/home/natalia/anaconda3/lib/libmkl_gnu_thread.so

//Build documentation.
BUILD_DOCUMENTATION:BOOL=OFF

//Enable building FAST.Farm
BUILD_FASTFARM:BOOL=OFF

//Enable building OpenFAST - C++ API
BUILD_OPENFAST_CPP_API:BOOL=OFF

//Enable building OpenFAST for use with Simulink
BUILD_OPENFAST_SIMULINK_API:BOOL=OFF

//Enable building shared libraries
BUILD_SHARED_LIBS:BOOL=OFF

//Build the testing tree.
BUILD_TESTING:BOOL=OFF

//Path to a program.
CMAKE_AR:FILEPATH=/usr/bin/ar

//Choose the type of build, options are: None Debug Release RelWithDebInfo
// MinSizeRel ...
CMAKE_BUILD_TYPE:STRING=Debug

//Id string of the compiler for the CodeBlocks IDE. Automatically
// detected when left empty
CMAKE_CODEBLOCKS_COMPILER_ID:STRING=

//The CodeBlocks executable
CMAKE_CODEBLOCKS_EXECUTABLE:FILEPATH=CMAKE_CODEBLOCKS_EXECUTABLE-NOTFOUND

//Additional command line arguments when CodeBlocks invokes make.
// Enter e.g. -j<some_number> to get parallel builds
CMAKE_CODEBLOCKS_MAKE_ARGUMENTS:STRING=-j24

//Enable/Disable color output during build.
CMAKE_COLOR_MAKEFILE:BOOL=ON

//No help, variable specified on the command line.
CMAKE_CXX_COMPILER:UNINITIALIZED=/home/natalia/anaconda3/envs/openfast/bin/x86_64-conda-linux-gnu-c++

//A wrapper around 'ar' adding the appropriate '--plugin' option
// for the GCC compiler
CMAKE_CXX_COMPILER_AR:FILEPATH=/home/natalia/anaconda3/envs/openfast/bin/gcc-ar

//A wrapper around 'ranlib' adding the appropriate '--plugin' option
// for the GCC compiler
CMAKE_CXX_COMPILER_RANLIB:FILEPATH=/home/natalia/anaconda3/envs/openfast/bin/gcc-ranlib

//Flags used by the CXX compiler during all build types.
CMAKE_CXX_FLAGS:STRING=-fvisibility-inlines-hidden -std=c++17 -fmessage-length=0 -march=nocona -mtune=haswell -ftree-vectorize -fPIC -fstack-protector-strong -fno-plt -O2 -ffunction-sections -pipe -isystem /home/natalia/miniconda3/include

//Flags used by the CXX compiler during DEBUG builds.
CMAKE_CXX_FLAGS_DEBUG:STRING=-g

//Flags used by the CXX compiler during MINSIZEREL builds.
CMAKE_CXX_FLAGS_MINSIZEREL:STRING=-Os -DNDEBUG

//Flags used by the CXX compiler during RELEASE builds.
CMAKE_CXX_FLAGS_RELEASE:STRING=-O3 -DNDEBUG

//Flags used by the CXX compiler during RELWITHDEBINFO builds.
CMAKE_CXX_FLAGS_RELWITHDEBINFO:STRING=-O2 -g -DNDEBUG

//No help, variable specified on the command line.
CMAKE_C_COMPILER:UNINITIALIZED=/home/natalia/anaconda3/envs/openfast/bin/x86_64-conda-linux-gnu-cc

//A wrapper around 'ar' adding the appropriate '--plugin' option
// for the GCC compiler
CMAKE_C_COMPILER_AR:FILEPATH=/home/natalia/anaconda3/envs/openfast/bin/gcc-ar

//A wrapper around 'ranlib' adding the appropriate '--plugin' option
// for the GCC compiler
CMAKE_C_COMPILER_RANLIB:FILEPATH=/home/natalia/anaconda3/envs/openfast/bin/gcc-ranlib

//Flags used by the C compiler during all build types.
CMAKE_C_FLAGS:STRING=-march=nocona -mtune=haswell -ftree-vectorize -fPIC -fstack-protector-strong -fno-plt -O2 -ffunction-sections -pipe -isystem /home/natalia/miniconda3/include

//Flags used by the C compiler during DEBUG builds.
CMAKE_C_FLAGS_DEBUG:STRING=-g

//Flags used by the C compiler during MINSIZEREL builds.
CMAKE_C_FLAGS_MINSIZEREL:STRING=-Os -DNDEBUG

//Flags used by the C compiler during RELEASE builds.
CMAKE_C_FLAGS_RELEASE:STRING=-O3 -DNDEBUG

//Flags used by the C compiler during RELWITHDEBINFO builds.
CMAKE_C_FLAGS_RELWITHDEBINFO:STRING=-O2 -g -DNDEBUG

//Flags used by the linker during all build types.
CMAKE_EXE_LINKER_FLAGS:STRING=-Wl,-O2 -Wl,--sort-common -Wl,--as-needed -Wl,-z,relro -Wl,-z,now -Wl,--disable-new-dtags -Wl,--gc-sections -Wl,-rpath,/home/natalia/miniconda3/lib -Wl,-rpath-link,/home/natalia/miniconda3/lib -L/home/natalia/miniconda3/lib

//Flags used by the linker during DEBUG builds.
CMAKE_EXE_LINKER_FLAGS_DEBUG:STRING=

//Flags used by the linker during MINSIZEREL builds.
CMAKE_EXE_LINKER_FLAGS_MINSIZEREL:STRING=

//Flags used by the linker during RELEASE builds.
CMAKE_EXE_LINKER_FLAGS_RELEASE:STRING=

//Flags used by the linker during RELWITHDEBINFO builds.
CMAKE_EXE_LINKER_FLAGS_RELWITHDEBINFO:STRING=

//Enable/Disable output of compile commands during generation.
CMAKE_EXPORT_COMPILE_COMMANDS:BOOL=OFF

//No help, variable specified on the command line.
CMAKE_Fortran_COMPILER:UNINITIALIZED=/home/natalia/anaconda3/bin/x86_64-conda-linux-gnu-gfortran

//A wrapper around 'ar' adding the appropriate '--plugin' option
// for the GCC compiler
CMAKE_Fortran_COMPILER_AR:FILEPATH=/usr/bin/gcc-ar-7

//A wrapper around 'ranlib' adding the appropriate '--plugin' option
// for the GCC compiler
CMAKE_Fortran_COMPILER_RANLIB:FILEPATH=/usr/bin/gcc-ranlib-7

//Flags used by the Fortran compiler during all build types.
CMAKE_Fortran_FLAGS:STRING=-fopenmp -march=nocona -mtune=haswell -ftree-vectorize -fPIC -fstack-protector-strong -fno-plt -O2 -ffunction-sections -pipe -isystem /home/natalia/miniconda3/include

//Flags used by the Fortran compiler during DEBUG builds.
CMAKE_Fortran_FLAGS_DEBUG:STRING=-g

//Flags used by the Fortran compiler during MINSIZEREL builds.
CMAKE_Fortran_FLAGS_MINSIZEREL:STRING=-Os -DNDEBUG -Os

//Flags used by the Fortran compiler during RELEASE builds.
CMAKE_Fortran_FLAGS_RELEASE:STRING=-O3 -DNDEBUG -O3

//Flags used by the Fortran compiler during RELWITHDEBINFO builds.
CMAKE_Fortran_FLAGS_RELWITHDEBINFO:STRING=-O2 -g -DNDEBUG

//Set the Fortran Modules directory
CMAKE_Fortran_MODULE_DIRECTORY:STRING=/data1/bladics/externals/bladics--externals--openfast-dice_v3.2.0/cmake-build-debug/ftnmods

//OpenFAST install directory
CMAKE_INSTALL_PREFIX:PATH=/data1/bladics/externals/bladics--externals--openfast-dice_v3.2.0/install

//Path to a program.
CMAKE_LINKER:FILEPATH=/usr/bin/ld

//Path to a program.
CMAKE_MAKE_PROGRAM:FILEPATH=/usr/bin/make

//Flags used by the linker during the creation of modules during
// all build types.
CMAKE_MODULE_LINKER_FLAGS:STRING=-Wl,-O2 -Wl,--sort-common -Wl,--as-needed -Wl,-z,relro -Wl,-z,now -Wl,--disable-new-dtags -Wl,--gc-sections -Wl,-rpath,/home/natalia/miniconda3/lib -Wl,-rpath-link,/home/natalia/miniconda3/lib -L/home/natalia/miniconda3/lib

//Flags used by the linker during the creation of modules during
// DEBUG builds.
CMAKE_MODULE_LINKER_FLAGS_DEBUG:STRING=

//Flags used by the linker during the creation of modules during
// MINSIZEREL builds.
CMAKE_MODULE_LINKER_FLAGS_MINSIZEREL:STRING=

//Flags used by the linker during the creation of modules during
// RELEASE builds.
CMAKE_MODULE_LINKER_FLAGS_RELEASE:STRING=

//Flags used by the linker during the creation of modules during
// RELWITHDEBINFO builds.
CMAKE_MODULE_LINKER_FLAGS_RELWITHDEBINFO:STRING=

//Path to a program.
CMAKE_NM:FILEPATH=/usr/bin/nm

//Path to a program.
CMAKE_OBJCOPY:FILEPATH=/usr/bin/objcopy

//Path to a program.
CMAKE_OBJDUMP:FILEPATH=/usr/bin/objdump

//No help, variable specified on the command line.
CMAKE_PREFIX_PATH:UNINITIALIZED=/home/natalia/anaconda3/lib

//Value Computed by CMake
CMAKE_PROJECT_DESCRIPTION:STATIC=

//Value Computed by CMake
CMAKE_PROJECT_HOMEPAGE_URL:STATIC=

//Value Computed by CMake
CMAKE_PROJECT_NAME:STATIC=OpenFAST

//Path to a program.
CMAKE_RANLIB:FILEPATH=/usr/bin/ranlib

//Flags used by the linker during the creation of shared libraries
// during all build types.
CMAKE_SHARED_LINKER_FLAGS:STRING=-Wl,-O2 -Wl,--sort-common -Wl,--as-needed -Wl,-z,relro -Wl,-z,now -Wl,--disable-new-dtags -Wl,--gc-sections -Wl,-rpath,/home/natalia/miniconda3/lib -Wl,-rpath-link,/home/natalia/miniconda3/lib -L/home/natalia/miniconda3/lib

//Flags used by the linker during the creation of shared libraries
// during DEBUG builds.
CMAKE_SHARED_LINKER_FLAGS_DEBUG:STRING=

//Flags used by the linker during the creation of shared libraries
// during MINSIZEREL builds.
CMAKE_SHARED_LINKER_FLAGS_MINSIZEREL:STRING=

//Flags used by the linker during the creation of shared libraries
// during RELEASE builds.
CMAKE_SHARED_LINKER_FLAGS_RELEASE:STRING=

//Flags used by the linker during the creation of shared libraries
// during RELWITHDEBINFO builds.
CMAKE_SHARED_LINKER_FLAGS_RELWITHDEBINFO:STRING=

//If set, runtime paths are not added when installing shared libraries,
// but are added when building.
CMAKE_SKIP_INSTALL_RPATH:BOOL=NO

//If set, runtime paths are not added when using shared libraries.
CMAKE_SKIP_RPATH:BOOL=NO

//Flags used by the linker during the creation of static libraries
// during all build types.
CMAKE_STATIC_LINKER_FLAGS:STRING=

//Flags used by the linker during the creation of static libraries
// during DEBUG builds.
CMAKE_STATIC_LINKER_FLAGS_DEBUG:STRING=

//Flags used by the linker during the creation of static libraries
// during MINSIZEREL builds.
CMAKE_STATIC_LINKER_FLAGS_MINSIZEREL:STRING=

//Flags used by the linker during the creation of static libraries
// during RELEASE builds.
CMAKE_STATIC_LINKER_FLAGS_RELEASE:STRING=

//Flags used by the linker during the creation of static libraries
// during RELWITHDEBINFO builds.
CMAKE_STATIC_LINKER_FLAGS_RELWITHDEBINFO:STRING=

//Path to a program.
CMAKE_STRIP:FILEPATH=/usr/bin/strip

//If this value is on, makefiles will be generated without the
// .SILENT directive, and all commands will be echoed to the console
// during the make.  This is useful for debugging only. With Visual
// Studio IDE projects all commands are done without /nologo.
CMAKE_VERBOSE_MAKEFILE:BOOL=FALSE

//Treat REAL as double precision
DOUBLE_PRECISION:BOOL=ON

//Enable FPE trap in compiler options
FPE_TRAP_ENABLED:BOOL=OFF

//Use the openfast-regsitry to autogenerate types modules
GENERATE_TYPES:BOOL=OFF

//Git command line client
GIT_EXECUTABLE:FILEPATH=/usr/bin/git

//Enable OpenMP support
OPENMP:BOOL=OFF

//Enable OrcaFlex Library Load
ORCA_DLL_LOAD:BOOL=ON

//Value Computed by CMake
OpenFAST_BINARY_DIR:STATIC=/data1/bladics/externals/bladics--externals--openfast-dice_v3.2.0/cmake-build-debug

//Value Computed by CMake
OpenFAST_SOURCE_DIR:STATIC=/data1/bladics/externals/bladics--externals--openfast-dice_v3.2.0

//Path to a program.
ProcessorCount_cmd_nproc:FILEPATH=/usr/bin/nproc

//Path to a program.
ProcessorCount_cmd_sysctl:FILEPATH=/sbin/sysctl

//Enable runtime loading of dynamic libraries
USE_DLL_INTERFACE:BOOL=ON

//Dependencies for the target
aeroacoustics_LIB_DEPENDS:STATIC=general;afinfolib;general;nwtclibs;

//Dependencies for the target
aerodyn14lib_LIB_DEPENDS:STATIC=general;ifwlib;general;nwtclibs;

//Dependencies for the target
aerodynlib_LIB_DEPENDS:STATIC=general;fvwlib;general;uaaerolib;general;afinfolib;general;nwtclibs;general;aeroacoustics;

//Dependencies for the target
afinfolib_LIB_DEPENDS:STATIC=general;nwtclibs;

//Dependencies for the target
awaelib_LIB_DEPENDS:STATIC=general;ifwlib;general;nwtclibs;

//Dependencies for the target
beamdynlib_LIB_DEPENDS:STATIC=general;nwtclibs;

//Dependencies for the target
elastodynlib_LIB_DEPENDS:STATIC=general;servodynlib;general;nwtclibs;

//Dependencies for the target
extptfm_mckflib_LIB_DEPENDS:STATIC=general;nwtclibs;

//Dependencies for the target
feamlib_LIB_DEPENDS:STATIC=general;nwtclibs;

//Dependencies for the target
foamfastlib_LIB_DEPENDS:STATIC=general;openfoamtypeslib;general;openfast_prelib;general;nwtclibs;

//Dependencies for the target
fvwlib_LIB_DEPENDS:STATIC=general;uaaerolib;general;afinfolib;general;nwtclibs;

//Dependencies for the target
hydrodyn_c_binding_LIB_DEPENDS:STATIC=general;hydrodynlib;

//Dependencies for the target
hydrodynlib_LIB_DEPENDS:STATIC=general;nwtclibs;

//Dependencies for the target
icedynlib_LIB_DEPENDS:STATIC=general;nwtclibs;

//Dependencies for the target
icefloelib_LIB_DEPENDS:STATIC=general;nwtclibs;general;versioninfolib;

//Dependencies for the target
ifw_c_binding_LIB_DEPENDS:STATIC=general;ifwlib;general;versioninfolib;

//Dependencies for the target
ifwlib_LIB_DEPENDS:STATIC=general;nwtclibs;

//Dependencies for the target
mapcpplib_LIB_DEPENDS:STATIC=general;nwtclibs;

//Dependencies for the target
maplib_LIB_DEPENDS:STATIC=general;mapcpplib;

//Dependencies for the target
moordynlib_LIB_DEPENDS:STATIC=general;nwtclibs;general;versioninfolib;

//Dependencies for the target
nwtclibs_LIB_DEPENDS:STATIC=general;/home/natalia/anaconda3/lib/libmkl_gf_lp64.so;general;/home/natalia/anaconda3/lib/libmkl_gnu_thread.so;general;/home/natalia/anaconda3/lib/libmkl_core.so;general;/home/natalia/anaconda3/lib/libgomp.so;general;-lpthread;general;-lm;general;-ldl;general;dl;

//Dependencies for the target
openfast_postlib_LIB_DEPENDS:STATIC=general;openfast_prelib;general;scdataexlib;general;foamfastlib;general;versioninfolib;

//Dependencies for the target
openfast_prelib_LIB_DEPENDS:STATIC=general;nwtclibs;general;ifwlib;general;aerodynlib;general;aerodyn14lib;general;servodynlib;general;elastodynlib;general;beamdynlib;general;subdynlib;general;hydrodynlib;general;orcaflexlib;general;extptfm_mckflib;general;openfoamtypeslib;general;scdataextypeslib;general;feamlib;general;moordynlib;general;icedynlib;general;icefloelib;general;maplib;

//Dependencies for the target
openfastlib_LIB_DEPENDS:STATIC=general;openfast_postlib;general;openfast_prelib;general;scdataexlib;general;foamfastlib;

//Dependencies for the target
openfoamtypeslib_LIB_DEPENDS:STATIC=general;nwtclibs;

//Dependencies for the target
orcaflexlib_LIB_DEPENDS:STATIC=general;nwtclibs;

//Dependencies for the target
scdataexlib_LIB_DEPENDS:STATIC=general;scdataextypeslib;general;openfast_prelib;general;nwtclibs;

//Dependencies for the target
scdataextypeslib_LIB_DEPENDS:STATIC=general;nwtclibs;

//Dependencies for the target
scfastlib_LIB_DEPENDS:STATIC=general;sctypeslib;general;openfast_prelib;general;nwtclibs;

//Dependencies for the target
sctypeslib_LIB_DEPENDS:STATIC=general;nwtclibs;

//Dependencies for the target
servodynlib_LIB_DEPENDS:STATIC=general;nwtclibs;

//Dependencies for the target
subdynlib_LIB_DEPENDS:STATIC=general;nwtclibs;

//Dependencies for the target
uaaerolib_LIB_DEPENDS:STATIC=general;afinfolib;general;nwtclibs;

//Dependencies for the target
versioninfolib_LIB_DEPENDS:STATIC=general;nwtclibs;

//Dependencies for the target
wdlib_LIB_DEPENDS:STATIC=general;nwtclibs;


########################
# INTERNAL cache entries
########################

//Have Fortran function sgemm
BLAS_WORKS:INTERNAL=
//ADVANCED property for variable: BLAS_gomp_LIBRARY
BLAS_gomp_LIBRARY-ADVANCED:INTERNAL=1
//ADVANCED property for variable: BLAS_guide_LIBRARY
BLAS_guide_LIBRARY-ADVANCED:INTERNAL=1
//ADVANCED property for variable: BLAS_mkl_core_LIBRARY
BLAS_mkl_core_LIBRARY-ADVANCED:INTERNAL=1
//ADVANCED property for variable: BLAS_mkl_gf_LIBRARY
BLAS_mkl_gf_LIBRARY-ADVANCED:INTERNAL=1
//ADVANCED property for variable: BLAS_mkl_gf_lp64_LIBRARY
BLAS_mkl_gf_lp64_LIBRARY-ADVANCED:INTERNAL=1
//Have Fortran function sgemm
BLAS_mkl_gf_lp64_thread_mkl_gnu_thread_thread_mkl_core_thread_gomp_thread_WORKS:INTERNAL=1
//ADVANCED property for variable: BLAS_mkl_gnu_thread_LIBRARY
BLAS_mkl_gnu_thread_LIBRARY-ADVANCED:INTERNAL=1
//ADVANCED property for variable: CMAKE_AR
CMAKE_AR-ADVANCED:INTERNAL=1
//This is the directory where this CMakeCache.txt was created
CMAKE_CACHEFILE_DIR:INTERNAL=/data1/bladics/externals/bladics--externals--openfast-dice_v3.2.0/cmake-build-debug
//Major version of cmake used to create the current loaded cache
CMAKE_CACHE_MAJOR_VERSION:INTERNAL=3
//Minor version of cmake used to create the current loaded cache
CMAKE_CACHE_MINOR_VERSION:INTERNAL=15
//Patch version of cmake used to create the current loaded cache
CMAKE_CACHE_PATCH_VERSION:INTERNAL=3
//ADVANCED property for variable: CMAKE_COLOR_MAKEFILE
CMAKE_COLOR_MAKEFILE-ADVANCED:INTERNAL=1
//Path to CMake executable.
CMAKE_COMMAND:INTERNAL=/home/natalia/.local/share/JetBrains/Toolbox/apps/CLion/ch-0/193.6911.21/bin/cmake/linux/bin/cmake
//Path to cpack program executable.
CMAKE_CPACK_COMMAND:INTERNAL=/home/natalia/.local/share/JetBrains/Toolbox/apps/CLion/ch-0/193.6911.21/bin/cmake/linux/bin/cpack
//Path to ctest program executable.
CMAKE_CTEST_COMMAND:INTERNAL=/home/natalia/.local/share/JetBrains/Toolbox/apps/CLion/ch-0/193.6911.21/bin/cmake/linux/bin/ctest
//ADVANCED property for variable: CMAKE_CXX_COMPILER
CMAKE_CXX_COMPILER-ADVANCED:INTERNAL=1
//ADVANCED property for variable: CMAKE_CXX_COMPILER_AR
CMAKE_CXX_COMPILER_AR-ADVANCED:INTERNAL=1
//ADVANCED property for variable: CMAKE_CXX_COMPILER_RANLIB
CMAKE_CXX_COMPILER_RANLIB-ADVANCED:INTERNAL=1
//ADVANCED property for variable: CMAKE_CXX_FLAGS
CMAKE_CXX_FLAGS-ADVANCED:INTERNAL=1
//ADVANCED property for variable: CMAKE_CXX_FLAGS_DEBUG
CMAKE_CXX_FLAGS_DEBUG-ADVANCED:INTERNAL=1
//ADVANCED property for variable: CMAKE_CXX_FLAGS_MINSIZEREL
CMAKE_CXX_FLAGS_MINSIZEREL-ADVANCED:INTERNAL=1
//ADVANCED property for variable: CMAKE_CXX_FLAGS_RELEASE
CMAKE_CXX_FLAGS_RELEASE-ADVANCED:INTERNAL=1
//ADVANCED property for variable: CMAKE_CXX_FLAGS_RELWITHDEBINFO
CMAKE_CXX_FLAGS_RELWITHDEBINFO-ADVANCED:INTERNAL=1
//ADVANCED property for variable: CMAKE_C_COMPILER
CMAKE_C_COMPILER-ADVANCED:INTERNAL=1
//ADVANCED property for variable: CMAKE_C_COMPILER_AR
CMAKE_C_COMPILER_AR-ADVANCED:INTERNAL=1
//ADVANCED property for variable: CMAKE_C_COMPILER_RANLIB
CMAKE_C_COMPILER_RANLIB-ADVANCED:INTERNAL=1
//ADVANCED property for variable: CMAKE_C_FLAGS
CMAKE_C_FLAGS-ADVANCED:INTERNAL=1
//ADVANCED property for variable: CMAKE_C_FLAGS_DEBUG
CMAKE_C_FLAGS_DEBUG-ADVANCED:INTERNAL=1
//ADVANCED property for variable: CMAKE_C_FLAGS_MINSIZEREL
CMAKE_C_FLAGS_MINSIZEREL-ADVANCED:INTERNAL=1
//ADVANCED property for variable: CMAKE_C_FLAGS_RELEASE
CMAKE_C_FLAGS_RELEASE-ADVANCED:INTERNAL=1
//ADVANCED property for variable: CMAKE_C_FLAGS_RELWITHDEBINFO
CMAKE_C_FLAGS_RELWITHDEBINFO-ADVANCED:INTERNAL=1
//Executable file format
CMAKE_EXECUTABLE_FORMAT:INTERNAL=ELF
//ADVANCED property for variable: CMAKE_EXE_LINKER_FLAGS
CMAKE_EXE_LINKER_FLAGS-ADVANCED:INTERNAL=1
//ADVANCED property for variable: CMAKE_EXE_LINKER_FLAGS_DEBUG
CMAKE_EXE_LINKER_FLAGS_DEBUG-ADVANCED:INTERNAL=1
//ADVANCED property for variable: CMAKE_EXE_LINKER_FLAGS_MINSIZEREL
CMAKE_EXE_LINKER_FLAGS_MINSIZEREL-ADVANCED:INTERNAL=1
//ADVANCED property for variable: CMAKE_EXE_LINKER_FLAGS_RELEASE
CMAKE_EXE_LINKER_FLAGS_RELEASE-ADVANCED:INTERNAL=1
//ADVANCED property for variable: CMAKE_EXE_LINKER_FLAGS_RELWITHDEBINFO
CMAKE_EXE_LINKER_FLAGS_RELWITHDEBINFO-ADVANCED:INTERNAL=1
//ADVANCED property for variable: CMAKE_EXPORT_COMPILE_COMMANDS
CMAKE_EXPORT_COMPILE_COMMANDS-ADVANCED:INTERNAL=1
//Name of external makefile project generator.
CMAKE_EXTRA_GENERATOR:INTERNAL=CodeBlocks
//CXX compiler system defined macros