<?xml version="1.0" encoding="UTF-8"?>
<CodeBlocks_project_file>
	<FileVersion major="1" minor="6"/>
	<Project>
		<Option title="OpenFAST"/>
		<Option makefile_is_custom="1"/>
		<Option compiler="gcc"/>
		<Option virtualFolders="CMake Files\;CMake Files\cmake\;CMake Files\modules\;CMake Files\modules\nwtc-library\;CMake Files\modules\inflowwind\;CMake Files\modules\aerodyn\;CMake Files\modules\aerodyn14\;CMake Files\modules\servodyn\;CMake Files\modules\elastodyn\;CMake Files\modules\beamdyn\;CMake Files\modules\subdyn\;CMake Files\modules\hydrodyn\;CMake Files\modules\orcaflex-interface\;CMake Files\modules\extptfm\;CMake Files\modules\openfoam\;CMake Files\modules\openfoam\src\;CMake Files\modules\supercontroller\;CMake Files\modules\supercontroller\src\;CMake Files\modules\turbsim\;CMake Files\modules\openfast-library\;CMake Files\modules\version\;CMake Files\modules\feamooring\;CMake Files\modules\moordyn\;CMake Files\modules\icedyn\;CMake Files\modules\icefloe\;CMake Files\modules\map\;CMake Files\modules\wakedynamics\;CMake Files\modules\awae\;CMake Files\.git\;CMake Files\.git\refs\;CMake Files\.git\refs\heads\;CMake Files\.git\refs\heads\release\;CMake Files\.git\refs\heads\release\d-ice\;CMake Files\glue-codes\;CMake Files\glue-codes\openfast\;"/>
		<Build>
			<Target title="all">
				<Option working_dir="/data1/bladics/externals/bladics--externals--openfast-dice_v3.2.0/cmake-build-release"/>
				<Option type="4"/>
				<MakeCommands>
					<Build command="/usr/bin/make -j24 -f &quot;/data1/bladics/externals/bladics--externals--openfast-dice_v3.2.0/cmake-build-release/Makefile&quot;  VERBOSE=1 all"/>
					<CompileFile command="/usr/bin/make -j24 -f &quot;/data1/bladics/externals/bladics--externals--openfast-dice_v3.2.0/cmake-build-release/Makefile&quot;  VERBOSE=1 &quot;$file&quot;"/>
					<Clean command="/usr/bin/make -j24 -f &quot;/data1/bladics/externals/bladics--externals--openfast-dice_v3.2.0/cmake-build-release/Makefile&quot;  VERBOSE=1 clean"/>
					<DistClean command="/usr/bin/make -j24 -f &quot;/data1/bladics/externals/bladics--externals--openfast-dice_v3.2.0/cmake-build-release/Makefile&quot;  VERBOSE=1 clean"/>
				</MakeCommands>
			</Target>
			<Target title="install/strip">
				<Option working_dir="/data1/bladics/externals/bladics--externals--openfast-dice_v3.2.0/cmake-build-release"/>
				<Option type="4"/>
				<MakeCommands>
					<Build command="/usr/bin/make -j24 -f &quot;/data1/bladics/externals/bladics--externals--openfast-dice_v3.2.0/cmake-build-release/Makefile&quot;  VERBOSE=1 install/strip"/>
					<CompileFile command="/usr/bin/make -j24 -f &quot;/data1/bladics/externals/bladics--externals--openfast-dice_v3.2.0/cmake-build-release/Makefile&quot;  VERBOSE=1 &quot;$file&quot;"/>
					<Clean command="/usr/bin/make -j24 -f &quot;/data1/bladics/externals/bladics--externals--openfast-dice_v3.2.0/cmake-build-release/Makefile&quot;  VERBOSE=1 clean"/>
					<DistClean command="/usr/bin/make -j24 -f &quot;/data1/bladics/externals/bladics--externals--openfast-dice_v3.2.0/cmake-build-release/Makefile&quot;  VERBOSE=1 clean"/>
				</MakeCommands>
			</Target>
			<Target title="install">
				<Option working_dir="/data1/bladics/externals/bladics--externals--openfast-dice_v3.2.0/cmake-build-release"/>
				<Option type="4"/>
				<MakeCommands>
					<Build command="/usr/bin/make -j24 -f &quot;/data1/bladics/externals/bladics--externals--openfast-dice_v3.2.0/cmake-build-release/Makefile&quot;  VERBOSE=1 install"/>
					<CompileFile command="/usr/bin/make -j24 -f &quot;/data1/bladics/externals/bladics--externals--openfast-dice_v3.2.0/cmake-build-release/Makefile&quot;  VERBOSE=1 &quot;$file&quot;"/>
					<Clean command="/usr/bin/make -j24 -f &quot;/data1/bladics/externals/bladics--externals--openfast-dice_v3.2.0/cmake-build-release/Makefile&quot;  VERBOSE=1 clean"/>
					<DistClean command="/usr/bin/make -j24 -f &quot;/data1/bladics/externals/bladics--externals--openfast-dice_v3.2.0/cmake-build-release/Makefile&quot;  VERBOSE=1 clean"/>
				</MakeCommands>
			</Target>
			<Target title="install/local">
				<Option working_dir="/data1/bladics/externals/bladics--externals--openfast-dice_v3.2.0/cmake-build-release"/>
				<Option type="4"/>
				<MakeCommands>
					<Build command="/usr/bin/make -j24 -f &quot;/data1/bladics/externals/bladics--externals--openfast-dice_v3.2.0/cmake-build-release/Makefile&quot;  VERBOSE=1 install/local"/>
					<CompileFile command="/usr/bin/make -j24 -f &quot;/data1/bladics/externals/bladics--externals--openfast-dice_v3.2.0/cmake-build-release/Makefile&quot;  VERBOSE=1 &quot;$file&quot;"/>
					<Clean command="/usr/bin/make -j24 -f &quot;/data1/bladics/externals/bladics--externals--openfast-dice_v3.2.0/cmake-build-release/Makefile&quot;  VERBOSE=1 clean"/>
					<DistClean command="/usr/bin/make -j24 -f &quot;/data1/bladics/externals/bladics--externals--openfast-dice_v3.2.0/cmake-build-release/Makefile&quot;  VERBOSE=1 clean"/>
				</MakeCommands>
			</Target>
			<Target title="list_install_components">
				<Option working_dir="/data1/bladics/externals/bladics--externals--openfast-dice_v3.2.0/cmake-build-release"/>
				<Option type="4"/>
				<MakeCommands>
					<Build command="/usr/bin/make -j24 -f &quot;/data1/bladics/externals/bladics--externals--openfast-dice_v3.2.0/cmake-build-release/Makefile&quot;  VERBOSE=1 list_install_components"/>
					<CompileFile command="/usr/bin/make -j24 -f &quot;/data1/bladics/externals/bladics--externals--openfast-dice_v3.2.0/cmake-build-release/Makefile&quot;  VERBOSE=1 &quot;$file&quot;"/>
					<Clean command="/usr/bin/make -j24 -f &quot;/data1/bladics/externals/bladics--externals--openfast-dice_v3.2.0/cmake-build-release/Makefile&quot;  VERBOSE=1 clean"/>
					<DistClean command="/usr/bin/make -j24 -f &quot;/data1/bladics/externals/bladics--externals--openfast-dice_v3.2.0/cmake-build-release/Makefile&quot;  VERBOSE=1 clean"/>
				</MakeCommands>
			</Target>
			<Target title="edit_cache">
				<Option working_dir="/data1/bladics/externals/bladics--externals--openfast-dice_v3.2.0/cmake-build-release"/>
				<Option type="4"/>
				<MakeCommands>
					<Build command="/usr/bin/make -j24 -f &quot;/data1/bladics/externals/bladics--externals--openfast-dice_v3.2.0/cmake-build-release/Makefile&quot;  VERBOSE=1 edit_cache"/>
					<CompileFile command="/usr/bin/make -j24 -f &quot;/data1/bladics/externals/bladics--externals--openfast-dice_v3.2.0/cmake-build-release/Makefile&quot;  VERBOSE=1 &quot;$file&quot;"/>
					<Clean command="/usr/bin/make -j24 -f &quot;/data1/bladics/externals/bladics--externals--openfast-dice_v3.2.0/cmake-build-release/Makefile&quot;  VERBOSE=1 clean"/>
					<DistClean command="/usr/bin/make -j24 -f &quot;/data1/bladics/externals/bladics--externals--openfast-dice_v3.2.0/cmake-build-release/Makefile&quot;  VERBOSE=1 clean"/>
				</MakeCommands>
			</Target>
			<Target title="rebuild_cache">
				<Option working_dir="/data1/bladics/externals/bladics--externals--openfast-dice_v3.2.0/cmake-build-release"/>
				<Option type="4"/>
				<MakeCommands>
					<Build command="/usr/bin/make -j24 -f &quot;/data1/bladics/externals/bladics--externals--openfast-dice_v3.2.0/cmake-build-release/Makefile&quot;  VERBOSE=1 rebuild_cache"/>
					<CompileFile command="/usr/bin/make -j24 -f &quot;/data1/bladics/externals/bladics--externals--openfast-dice_v3.2.0/cmake-build-release/Makefile&quot;  VERBOSE=1 &quot;$file&quot;"/>
					<Clean command="/usr/bin/make -j24 -f &quot;/data1/bladics/externals/bladics--externals--openfast-dice_v3.2.0/cmake-build-release/Makefile&quot;  VERBOSE=1 clean"/>
					<DistClean command="/usr/bin/make -j24 -f &quot;/data1/bladics/externals/bladics--externals--openfast-dice_v3.2.0/cmake-build-release/Makefile&quot;  VERBOSE=1 clean"/>
				</MakeCommands>
			</Target>
			<Target title="nwtclibs">
				<Option output="/data1/bladics/externals/bladics--externals--openfast-dice_v3.2.0/cmake-build-release/modules/nwtc-library/libnwtclibs.a" prefix_auto="0" extension_auto="0"/>
				<Option working_dir="/data1/bladics/externals/bladics--externals--openfast-dice_v3.2.0/cmake-build-release/modules/nwtc-library"/>
				<Option object_output="./"/>
				<Option type="2"/>
				<Option compiler="gcc"/>
				<Compiler>
					<Add option="-DOPENFAST_DOUBLE_PRECISION"/>
					<Add option="-DHAS_FORTRAN2008_FEATURES"/>
					<Add option="-DUSE_DLL_INTERFACE"/>
					<Add directory="/data1/bladics/externals/bladics--externals--openfast-dice_v3.2.0/cmake-build-release/ftnmods"/>
					<Add directory="/home/natalia/anaconda3/envs/openfast/bin/../lib/gcc/x86_64-conda-linux-gnu/11.2.0/../../../../x86_64-conda-linux-gnu/include/c++/11.2.0"/>
					<Add directory="/home/natalia/anaconda3/envs/openfast/bin/../lib/gcc/x86_64-conda-linux-gnu/11.2.0/../../../../x86_64-conda-linux-gnu/include/c++/11.2.0/x86_64-conda-linux-gnu"/>
					<Add directory="/home/natalia/anaconda3/envs/openfast/bin/../lib/gcc/x86_64-conda-linux-gnu/11.2.0/../../../../x86_64-conda-linux-gnu/include/c++/11.2.0/backward"/>
					<Add directory="/home/natalia/anaconda3/envs/openfast/bin/../lib/gcc/x86_64-conda-linux-gnu/11.2.0/include"/>
					<Add directory="/home/natalia/anaconda3/envs/openfast/bin/../lib/gcc/x86_64-conda-linux-gnu/11.2.0/include-fixed"/>
					<Add directory="/home/natalia/anaconda3/envs/openfast/bin/../lib/gcc/x86_64-conda-linux-gnu/11.2.0/../../../../x86_64-conda-linux-gnu/include"/>
					<Add directory="/home/natalia/anaconda3/envs/openfast/bin/../x86_64-conda-linux-gnu/sysroot/usr/include"/>
				</Compiler>
				<MakeCommands>
					<Build command="/usr/bin/make -j24 -f &quot;/data1/bladics/externals/bladics--externals--openfast-dice_v3.2.0/cmake-build-release/modules/nwtc-library/Makefile&quot;  VERBOSE=1 nwtclibs"/>
					<CompileFile command="/usr/bin/make -j24 -f &quot;/data1/bladics/externals/bladics--externals--openfast-dice_v3.2.0/cmake-build-release/modules/nwtc-library/Makefile&quot;  VERBOSE=1 &quot;$file&quot;"/>
					<Clean command="/usr/bin/make -j24 -f &quot;/data1/bladics/externals/bladics--externals--openfast-dice_v3.2.0/cmake-build-release/modules/nwtc-library/Makefile&quot;  VERBOSE=1 clean"/>
					<DistClean command="/usr/bin/make -j24 -f &quot;/data1/bladics/externals/bladics--externals--openfast-dice_v3.2.0/cmake-build-release/modules/nwtc-library/Makefile&quot;  VERBOSE=1 clean"/>
				</MakeCommands>
			</Target>
			<Target title="nwtclibs/fast">
				<Option output="/data1/bladics/externals/bladics--externals--openfast-dice_v3.2.0/cmake-build-release/modules/nwtc-library/libnwtclibs.a" prefix_auto="0" extension_auto="0"/>
				<Option working_dir="/data1/bladics/externals/bladics--externals--openfast-dice_v3.2.0/cmake-build-release/modules/nwtc-library"/>
				<Option object_output="./"/>
				<Option type="2"/>
				<Option compiler="gcc"/>
				<Compiler>
					<Add option="-DOPENFAST_DOUBLE_PRECISION"/>
					<Add option="-DHAS_FORTRAN2008_FEATURES"/>
					<Add option="-DUSE_DLL_INTERFACE"/>
					<Add directory="/data1/bladics/externals/bladics--externals--openfast-dice_v3.2.0/cmake-build-release/ftnmods"/>
					<Add directory="/home/natalia/anaconda3/envs/openfast/bin/../lib/gcc/x86_64-conda-linux-gnu/11.2.0/../../../../x86_64-conda-linux-gnu/include/c++/11.2.0"/>
					<Add directory="/home/natalia/anaconda3/envs/openfast/bin/../lib/gcc/x86_64-conda-linux-gnu/11.2.0/../../../../x86_64-conda-linux-gnu/include/c++/11.2.0/x86_64-conda-linux-gnu"/>
					<Add directory="/home/natalia/anaconda3/envs/openfast/bin/../lib/gcc/x86_64-conda-linux-gnu/11.2.0/../../../../x86_64-conda-linux-gnu/include/c++/11.2.0/backward"/>
					<Add directory="/home/natalia/anaconda3/envs/openfast/bin/../lib/gcc/x86_64-conda-linux-gnu/11.2.0/include"/>
					<Add directory="/home/natalia/anaconda3/envs/openfast/bin/../lib/gcc/x86_64-conda-linux-gnu/11.2.0/include-fixed"/>
					<Add directory="/home/natalia/anaconda3/envs/openfast/bin/../lib/gcc/x86_64-conda-linux-gnu/11.2.0/../../../../x86_64-conda-linux-gnu/include"/>
					<Add directory="/home/natalia/anaconda3/envs/openfast/bin/../x86_64-conda-linux-gnu/sysroot/usr/include"/>
				</Compiler>
				<MakeCommands>
					<Build command="/usr/bin/make -j24 -f &quot;/data1/bladics/externals/bladics--externals--openfast-dice_v3.2.0/cmake-build-release/modules/nwtc-library/Makefile&quot;  VERBOSE=1 nwtclibs/fast"/>
					<CompileFile command="/usr/bin/make -j24 -f &quot;/data1/bladics/externals/bladics--externals--openfast-dice_v3.2.0/cmake-build-release/modules/nwtc-library/Makefile&quot;  VERBOSE=1 &quot;$file&quot;"/>
					<Clean command="/usr/bin/make -j24 -f &quot;/data1/bladics/externals/bladics--externals--openfast-dice_v3.2.0/cmake-build-release/modules/nwtc-library/Makefile&quot;  VERBOSE=1 clean"/>
					<DistClean command="/usr/bin/make -j24 -f &quot;/data1/bladics/externals/bladics--externals--openfast-dice_v3.2.0/cmake-build-release/modules/nwtc-library/Makefile&quot;  VERBOSE=1 clean"/>
				</MakeCommands>
			</Target>
			<Target title="ifw_c_binding">
				<Option output="/data1/bladics/externals/bladics--externals--openfast-dice_v3.2.0/cmake-build-release/modules/inflowwind/libifw_c_binding.so" prefix_auto="0" extension_auto="0"/>
				<Option working_dir="/data1/bladics/externals/bladics--externals--openfast-dice_v3.2.0/cmake-build-release/modules/inflowwind"/>
				<Option object_output="./"/>
				<Option type="3"/>
				<Option compiler="gcc"/>
				<Compiler>
					<Add option="-DIMPLICIT_DLLEXPORT"/>
					<Add option="-DOPENFAST_DOUBLE_PRECISION"/>
					<Add option="-DHAS_FORTRAN2008_FEATURES"/>
					<Add option="-DUSE_DLL_INTERFACE"/>
					<Add directory="/data1/bladics/externals/bladics--externals--openfast-dice_v3.2.0/cmake-build-release/ftnmods"/>
					<Add directory="/home/natalia/anaconda3/envs/openfast/bin/../lib/gcc/x86_64-conda-linux-gnu/11.2.0/../../../../x86_64-conda-linux-gnu/include/c++/11.2.0"/>
					<Add directory="/home/natalia/anaconda3/envs/openfast/bin/../lib/gcc/x86_64-conda-linux-gnu/11.2.0/../../../../x86_64-conda-linux-gnu/include/c++/11.2.0/x86_64-conda-linux-gnu"/>
					<Add directory="/home/natalia/anaconda3/envs/openfast/bin/../lib/gcc/x86_64-conda-linux-gnu/11.2.0/../../../../x86_64-conda-linux-gnu/include/c++/11.2.0/backward"/>
					<Add directory="/home/natalia/anaconda3/envs/openfast/bin/../lib/gcc/x86_64-conda-linux-gnu/11.2.0/include"/>
					<Add directory="/home/natalia/anaconda3/envs/openfast/bin/../lib/gcc/x86_64-conda-linux-gnu/11.2.0/include-fixed"/>
					<Add directory="/home/natalia/anaconda3/envs/openfast/bin/../lib/gcc/x86_64-conda-linux-gnu/11.2.0/../../../../x86_64-conda-linux-gnu/include"/>
					<Add directory="/home/natalia/anaconda3/envs/openfast/bin/../x86_64-conda-linux-gnu/sysroot/usr/include"/>
				</Compiler>
				<MakeCommands>
					<Build command="/usr/bin/make -j24 -f &quot;/data1/bladics/externals/bladics--externals--openfast-dice_v3.2.0/cmake-build-release/modules/inflowwind/Makefile&quot;  VERBOSE=1 ifw_c_binding"/>
					<CompileFile command="/usr/bin/make -j24 -f &quot;/data1/bladics/externals/bladics--externals--openfast-dice_v3.2.0/cmake-build-release/modules/inflowwind/Makefile&quot;  VERBOSE=1 &quot;$file&quot;"/>
					<Clean command="/usr/bin/make -j24 -f &quot;/data1/bladics/externals/bladics--externals--openfast-dice_v3.2.0/cmake-build-release/modules/inflowwind/Makefile&quot;  VERBOSE=1 clean"/>
					<DistClean command="/usr/bin/make -j24 -f &quot;/data1/bladics/externals/bladics--externals--openfast-dice_v3.2.0/cmake-build-release/modules/inflowwind/Makefile&quot;  VERBOSE=1 clean"/>
				</MakeCommands>
			</Target>
			<Target title="ifw_c_binding/fast">
				<Option output="/data1/bladics/externals/bladics--externals--openfast-dice_v3.2.0/cmake-build-release/modules/inflowwind/libifw_c_binding.so" prefix_auto="0" extension_auto="0"/>
				<Option working_dir="/data1/bladics/externals/bladics--externals--openfast-dice_v3.2.0/cmake-build-release/modules/inflowwind"/>
				<Option object_output="./"/>
				<Option type="3"/>
				<Option compiler="gcc"/>
				<Compiler>
					<Add option="-DIMPLICIT_DLLEXPORT"/>
					<Add option="-DOPENFAST_DOUBLE_PRECISION"/>
					<Add option="-DHAS_FORTRAN2008_FEATURES"/>
					<Add option="-DUSE_DLL_INTERFACE"/>
					<Add directory="/data1/bladics/externals/bladics--externals--openfast-dice_v3.2.0/cmake-build-release/ftnmods"/>
					<Add directory="/home/natalia/anaconda3/envs/openfast/bin/../lib/gcc/x86_64-conda-linux-gnu/11.2.0/../../../../x86_64-conda-linux-gnu/include/c++/11.2.0"/>
					<Add directory="/home/natalia/anaconda3/envs/openfast/bin/../lib/gcc/x86_64-conda-linux-gnu/11.2.0/../../../../x86_64-conda-linux-gnu/include/c++/11.2.0/x86_64-conda-linux-gnu"/>
					<Add directory="/home/natalia/anaconda3/envs/openfast/bin/../lib/gcc/x86_64-conda-linux-gnu/11.2.0/../../../../x86_64-conda-linux-gnu/include/c++/11.2.0/backward"/>
					<Add directory="/home/natalia/anaconda3/envs/openfast/bin/../lib/gcc/x86_64-conda-linux-gnu/11.2.0/include"/>
					<Add directory="/home/natalia/anaconda3/envs/openfast/bin/../lib/gcc/x86_64-conda-linux-gnu/11.2.0/include-fixed"/>
					<Add directory="/home/natalia/anaconda3/envs/openfast/bin/../lib/gcc/x86_64-conda-linux-gnu/11.2.0/../../../../x86_64-conda-linux-gnu/include"/>
					<Add directory="/home/natalia/anaconda3/envs/openfast/bin/../x86_64-conda-linux-gnu/sysroot/usr/include"/>
				</Compiler>
				<MakeCommands>
					<Build command="/usr/bin/make -j24 -f &quot;/data1/bladics/externals/bladics--externals--openfast-dice_v3.2.0/cmake-build-release/modules/inflowwind/Makefile&quot;  VERBOSE=1 ifw_c_binding/fast"/>
					<CompileFile command="/usr/bin/make -j24 -f &quot;/data1/bladics/externals/bladics--externals--openfast-dice_v3.2.0/cmake-build-release/modules/inflowwind/Makefile&quot;  VERBOSE=1 &quot;$file&quot;"/>
					<Clean command="/usr/bin/make -j24 -f &quot;/data1/bladics/externals/bladics--externals--openfast-dice_v3.2.0/cmake-build-release/modules/inflowwind/Makefile&quot;  VERBOSE=1 clean"/>
					<DistClean command="/usr/bin/make -j24 -f &quot;/data1/bladics/externals/bladics--externals--openfast-dice_v3.2.0/cmake-build-release/modules/inflowwind/Makefile&quot;  VERBOSE=1 clean"/>
				</MakeCommands>
			</Target>
			<Target title="inflowwind_driver">
				<Option output="/data1/bladics/externals/bladics--externals--openfast-dice_v3.2.0/cmake-build-release/modules/inflowwind/inflowwind_driver" prefix_auto="0" extension_auto="0"/>
				<Option working_dir="/data1/bladics/externals/bladics--externals--openfast-dice_v3.2.0/cmake-build-release/modules/inflowwind"/>
				<Option object_output="./"/>
				<Option type="1"/>
				<Option compiler="gcc"/>
				<Compiler>
					<Add option="-DOPENFAST_DOUBLE_PRECISION"/>
					<Add option="-DHAS_FORTRAN2008_FEATURES"/>
					<Add option="-DUSE_DLL_INTERFACE"/>
					<Add directory="/data1/bladics/externals/bladics--externals--openfast-dice_v3.2.0/cmake-build-release/ftnmods"/>
					<Add directory="/home/natalia/anaconda3/envs/openfast/bin/../lib/gcc/x86_64-conda-linux-gnu/11.2.0/../../../../x86_64-conda-linux-gnu/include/c++/11.2.0"/>
					<Add directory="/home/natalia/anaconda3/envs/openfast/bin/../lib/gcc/x86_64-conda-linux-gnu/11.2.0/../../../../x86_64-conda-linux-gnu/include/c++/11.2.0/x86_64-conda-linux-gnu"/>
					<Add directory="/home/natalia/anaconda3/envs/openfast/bin/../lib/gcc/x86_64-conda-linux-gnu/11.2.0/../../../../x86_64-conda-linux-gnu/include/c++/11.2.0/backward"/>
					<Add directory="/home/natalia/anaconda3/envs/openfast/bin/../lib/gcc/x86_64-conda-linux-gnu/11.2.0/include"/>
					<Add directory="/home/natalia/anaconda3/envs/openfast/bin/../lib/gcc/x86_64-conda-linux-gnu/11.2.0/include-fixed"/>
					<Add directory="/home/natalia/anaconda3/envs/openfast/bin/../lib/gcc/x86_64-conda-linux-gnu/11.2.0/../../../../x86_64-conda-linux-gnu/include"/>
					<Add directory="/home/natalia/anaconda3/envs/openfast/bin/../x86_64-conda-linux-gnu/sysroot/usr/include"/>
				</Compiler>
				<MakeCommands>
					<Build command="/usr/bin/make -j24 -f &quot;/data1/bladics/externals/bladics--externals--openfast-dice_v3.2.0/cmake-build-release/modules/inflowwind/Makefile&quot;  VERBOSE=1 inflowwind_driver"/>
					<CompileFile command="/usr/bin/make -j24 -f &quot;/data1/bladics/externals/bladics--externals--openfast-dice_v3.2.0/cmake-build-release/modules/inflowwind/Makefile&quot;  VERBOSE=1 &quot;$file&quot;"/>
					<Clean command="/usr/bin/make -j24 -f &quot;/data1/bladics/externals/bladics--externals--openfast-dice_v3.2.0/cmake-build-release/modules/inflowwind/Makefile&quot;  VERBOSE=1 clean"/>
					<DistClean command="/usr/bin/make -j24 -f &quot;/data1/bladics/externals/bladics--externals--openfast-dice_v3.2.0/cmake-build-release/modules/inflowwind/Makefile&quot;  VERBOSE=1 clean"/>
				</MakeCommands>
			</Target>
			<Target title="inflowwind_driver/fast">
				<Option output="/data1/bladics/externals/bladics--externals--openfast-dice_v3.2.0/cmake-build-release/modules/inflowwind/inflowwind_driver" prefix_auto="0" extension_auto="0"/>
				<Option working_dir="/data1/bladics/externals/bladics--externals--openfast-dice_v3.2.0/cmake-build-release/modules/inflowwind"/>
				<Option object_output="./"/>
				<Option type="1"/>
				<Option compiler="gcc"/>
				<Compiler>
					<Add option="-DOPENFAST_DOUBLE_PRECISION"/>
					<Add option="-DHAS_FORTRAN2008_FEATURES"/>
					<Add option="-DUSE_DLL_INTERFACE"/>
					<Add directory="/data1/bladics/externals/bladics--externals--openfast-dice_v3.2.0/cmake-build-release/ftnmods"/>
					<Add directory="/home/natalia/anaconda3/envs/openfast/bin/../lib/gcc/x86_64-conda-linux-gnu/11.2.0/../../../../x86_64-conda-linux-gnu/include/c++/11.2.0"/>
					<Add directory="/home/natalia/anaconda3/envs/openfast/bin/../lib/gcc/x86_64-conda-linux-gnu/11.2.0/../../../../x86_64-conda-linux-gnu/include/c++/11.2.0/x86_64-conda-linux-gnu"/>
					<Add directory="/home/natalia/anaconda3/envs/openfast/bin/../lib/gcc/x86_64-conda-linux-gnu/11.2.0/../../../../x86_64-conda-linux-gnu/include/c++/11.2.0/backward"/>
					<Add directory="/home/natalia/anaconda3/envs/openfast/bin/../lib/gcc/x86_64-conda-linux-gnu/11.2.0/include"/>
					<Add directory="/home/natalia/anaconda3/envs/openfast/bin/../lib/gcc/x86_64-conda-linux-gnu/11.2.0/include-fixed"/>
					<Add directory="/home/natalia/anaconda3/envs/openfast/bin/../lib/gcc/x86_64-conda-linux-gnu/11.2.0/../../../../x86_64-conda-linux-gnu/include"/>
					<Add directory="/home/natalia/anaconda3/envs/openfast/bin/../x86_64-conda-linux-gnu/sysroot/usr/include"/>
				</Compiler>
				<MakeCommands>
					<Build command="/usr/bin/make -j24 -f &quot;/data1/bladics/externals/bladics--externals--openfast-dice_v3.2.0/cmake-build-release/modules/inflowwind/Makefile&quot;  VERBOSE=1 inflowwind_driver/fast"/>
					<CompileFile command="/usr/bin/make -j24 -f &quot;/data1/bladics/externals/bladics--externals--openfast-dice_v3.2.0/cmake-build-release/modules/inflowwind/Makefile&quot;  VERBOSE=1 &quot;$file&quot;"/>
					<Clean command="/usr/bin/make -j24 -f &quot;/data1/bladics/externals/bladics--externals--openfast-dice_v3.2.0/cmake-build-release/modules/inflowwind/Makefile&quot;  VERBOSE=1 clean"/>
					<DistClean command="/usr/bin/make -j24 -f &quot;/data1/bladics/externals/bladics--externals--openfast-dice_v3.2.0/cmake-build-release/modules/inflowwind/Makefile&quot;  VERBOSE=1 clean"/>
				</MakeCommands>
			</Target>
			<Target title="ifwlib">
				<Option output="/data1/bladics/externals/bladics--externals--openfast-dice_v3.2.0/cmake-build-release/modules/inflowwind/libifwlib.a" prefix_auto="0" extension_auto="0"/>
				<Option working_dir="/data1/bladics/externals/bladics--externals--openfast-dice_v3.2.0/cmake-build-release/modules/inflowwind"/>
				<Option object_output="./"/>
				<Option type="2"/>
				<Option compiler="gcc"/>
				<Compiler>
					<Add option="-DOPENFAST_DOUBLE_PRECISION"/>
					<Add option="-DHAS_FORTRAN2008_FEATURES"/>
					<Add option="-DUSE_DLL_INTERFACE"/>
					<Add directory="/data1/bladics/externals/bladics--externals--openfast-dice_v3.2.0/cmake-build-release/ftnmods"/>
					<Add directory="/home/natalia/anaconda3/envs/openfast/bin/../lib/gcc/x86_64-conda-linux-gnu/11.2.0/../../../../x86_64-conda-linux-gnu/include/c++/11.2.0"/>
					<Add directory="/home/natalia/anaconda3/envs/openfast/bin/../lib/gcc/x86_64-conda-linux-gnu/11.2.0/../../../../x86_64-conda-linux-gnu/include/c++/11.2.0/x86_64-conda-linux-gnu"/>
					<Add directory="/home/natalia/anaconda3/envs/openfast/bin/../lib/gcc/x86_64-conda-linux-gnu/11.2.0/../../../../x86_64-conda-linux-gnu/include/c++/11.2.0/backward"/>
					<Add directory="/home/natalia/anaconda3/envs/openfast/bin/../lib/gcc/x86_64-conda-linux-gnu/11.2.0/include"/>
					<Add directory="/home/natalia/anaconda3/envs/openfast/bin/../lib/gcc/x86_64-conda-linux-gnu/11.2.0/include-fixed"/>
					<Add directory="/home/natalia/anaconda3/envs/openfast/bin/../lib/gcc/x86_64-conda-linux-gnu/11.2.0/../../../../x86_64-conda-linux-gnu/include"/>
					<Add directory="/home/natalia/anaconda3/envs/openfast/bin/../x86_64-conda-linux-gnu/sysroot/usr/include"/>
				</Compiler>
				<MakeCommands>
					<Build command="/usr/bin/make -j24 -f &quot;/data1/bladics/externals/bladics--externals--openfast-dice_v3.2.0/cmake-build-release/modules/inflowwind/Makefile&quot;  VERBOSE=1 ifwlib"/>
					<CompileFile command="/usr/bin/make -j24 -f &quot;/data1/bladics/externals/bladics--externals--openfast-dice_v3.2.0/cmake-build-release/modules/inflowwind/Makefile&quot;  VERBOSE=1 &quot;$file&quot;"/>
					<Clean command="/usr/bin/make -j24 -f &quot;/data1/bladics/externals/bladics--externals--openfast-dice_v3.2.0/cmake-build-release/modules/inflowwind/Makefile&quot;  VERBOSE=1 clean"/>
					<DistClean command="/usr/bin/make -j24 -f &quot;/data1/bladics/externals/bladics--externals--openfast-dice_v3.2.0/cmake-build-release/modules/inflowwind/Makefile&quot;  VERBOSE=1 clean"/>
				</MakeCommands>
			</Target>
			<Target title="ifwlib/fast">
				<Option output="/data1/bladics/externals/bladics--externals--openfast-dice_v3.2.0/cmake-build-release/modules/inflowwind/libifwlib.a" prefix_auto="0" extension_auto="0"/>
				<Option working_dir="/data1/bladics/externals/bladics--externals--openfast-dice_v3.2.0/cmake-build-release/modules/inflowwind"/>
				<Option object_output="./"/>
				<Option type="2"/>
				<Option compiler="gcc"/>
				<Compiler>
					<Add option="-DOPENFAST_DOUBLE_PRECISION"/>
					<Add option="-DHAS_FORTRAN2008_FEATURES"/>
					<Add option="-DUSE_DLL_INTERFACE"/>
					<Add directory="/data1/bladics/externals/bladics--externals--openfast-dice_v3.2.0/cmake-build-release/ftnmods"/>
					<Add directory="/home/natalia/anaconda3/envs/openfast/bin/../lib/gcc/x86_64-conda-linux-gnu/11.2.0/../../../../x86_64-conda-linux-gnu/include/c++/11.2.0"/>
					<Add directory="/home/natalia/anaconda3/envs/openfast/bin/../lib/gcc/x86_64-conda-linux-gnu/11.2.0/../../../../x86_64-conda-linux-gnu/include/c++/11.2.0/x86_64-conda-linux-gnu"/>
					<Add directory="/home/natalia/anaconda3/envs/openfast/bin/../lib/gcc/x86_64-conda-linux-gnu/11.2.0/../../../../x86_64-conda-linux-gnu/include/c++/11.2.0/backward"/>
					<Add directory="/home/natalia/anaconda3/envs/openfast/bin/../lib/gcc/x86_64-conda-linux-gnu/11.2.0/include"/>
					<Add directory="/home/natalia/anaconda3/envs/openfast/bin/../lib/gcc/x86_64-conda-linux-gnu/11.2.0/include-fixed"/>
					<Add directory="/home/natalia/anaconda3/envs/openfast/bin/../lib/gcc/x86_64-conda-linux-gnu/11.2.0/../../../../x86_64-conda-linux-gnu/include"/>
					<Add directory="/home/natalia/anaconda3/envs/openfast/bin/../x86_64-conda-linux-gnu/sysroot/usr/include"/>
				</Compiler>
				<MakeCommands>
					<Build command="/usr/bin/make -j24 -f &quot;/data1/bladics/externals/bladics--externals--openfast-dice_v3.2.0/cmake-build-release/modules/inflowwind/Makefile&quot;  VERBOSE=1 ifwlib/fast"/>
					<CompileFile command="/usr/bin/make -j24 -f &quot;/data1/bladics/externals/bladics--externals--openfast-dice_v3.2.0/cmake-build-release/modules/inflowwind/Makefile&quot;  VERBOSE=1 &quot;$file&quot;"/>
					<Clean command="/usr/bin/make -j24 -f &quot;/data1/bladics/externals/bladics--externals--openfast-dice_v3.2.0/cmake-build-release/modules/inflowwind/Makefile&quot;  VERBOSE=1 clean"/>
					<DistClean command="/usr/bin/make -j24 -f &quot;/data1/bladics/externals/bladics--externals--openfast-dice_v3.2.0/cmake-build-release/modules/inflowwind/Makefile&quot;  VERBOSE=1 clean"/>
				</MakeCommands>
			</Target>
			<Target title="unsteadyaero_driver">
				<Option output="/data1/bladics/externals/bladics--externals--openfast-dice_v3.2.0/cmake-build-release/modules/aerodyn/unsteadyaero_driver" prefix_auto="0" extension_auto="0"/>
				<Option working_dir="/data1/bladics/externals/bladics--externals--openfast-dice_v3.2.0/cmake-build-release/modules/aerodyn"/>
				<Option object_output="./"/>
				<Option type="1"/>
				<Option compiler="gcc"/>
				<Compiler>
					<Add option="-DOPENFAST_DOUBLE_PRECISION"/>
					<Add option="-DHAS_FORTRAN2008_FEATURES"/>
					<Add option="-DUSE_DLL_INTERFACE"/>
					<Add directory="/data1/bladics/externals/bladics--externals--openfast-dice_v3.2.0/cmake-build-release/ftnmods"/>
					<Add directory="/home/natalia/anaconda3/envs/openfast/bin/../lib/gcc/x86_64-conda-linux-gnu/11.2.0/../../../../x86_64-conda-linux-gnu/include/c++/11.2.0"/>
					<Add directory="/home/natalia/anaconda3/envs/openfast/bin/../lib/gcc/x86_64-conda-linux-gnu/11.2.0/../../../../x86_64-conda-linux-gnu/include/c++/11.2.0/x86_64-conda-linux-gnu"/>
					<Add directory="/home/natalia/anaconda3/envs/openfast/bin/../lib/gcc/x86_64-conda-linux-gnu/11.2.0/../../../../x86_64-conda-linux-gnu/include/c++/11.2.0/backward"/>
					<Add directory="/home/natalia/anaconda3/envs/openfast/bin/../lib/gcc/x86_64-conda-linux-gnu/11.2.0/include"/>
					<Add directory="/home/natalia/anaconda3/envs/openfast/bin/../lib/gcc/x86_64-conda-linux-gnu/11.2.0/include-fixed"/>