/home/natalia/anaconda3/bin/x86_64-conda-linux-gnu-gfortran  -Wl,-O2 -Wl,--sort-common -Wl,--as-needed -Wl,-z,relro -Wl,-z,now -Wl,--disable-new-dtags -Wl,--gc-sections -Wl,-rpath,/home/natalia/miniconda3/lib -Wl,-rpath-link,/home/natalia/miniconda3/lib -L/home/natalia/miniconda3/lib -fopenmp -march=nocona -mtune=haswell -ftree-vectorize -fPIC -fstack-protector-strong -fno-plt -O2 -ffunction-sections -pipe -isystem /home/natalia/miniconda3/include -fpic  -ffree-line-length-none -cpp -fstack-reuse=none -fdefault-real-8 -O3 -DNDEBUG -O3 CMakeFiles/turbsim.dir/src/BlankModVKM.f90.o CMakeFiles/turbsim.dir/src/CohStructures.f90.o CMakeFiles/turbsim.dir/src/Profiles.f90.o CMakeFiles/turbsim.dir/src/RandNum.f90.o CMakeFiles/turbsim.dir/src/Root_Searching.f90.o CMakeFiles/turbsim.dir/src/TS_FileIO.f90.o CMakeFiles/turbsim.dir/src/TSsubs.f90.o CMakeFiles/turbsim.dir/src/TurbSim.f90.o CMakeFiles/turbsim.dir/src/TurbSim_Types.f90.o CMakeFiles/turbsim.dir/src/VelocitySpectra.f90.o  -o turbsim -Wl,-rpath,/home/natalia/anaconda3/lib:::::::::::::::::::::::::::::::::::::::::::::::::::::::::::::::::::::::::::::: ../nwtc-library/libnwtclibs.a ../version/libversioninfolib.a ../nwtc-library/libnwtclibs.a /home/natalia/anaconda3/lib/libmkl_gf_lp64.so /home/natalia/anaconda3/lib/libmkl_gnu_thread.so /home/natalia/anaconda3/lib/libmkl_core.so /home/natalia/anaconda3/lib/libgomp.so -lpthread -lm -ldl -ldl 
